
 ANSYS Mechanical Enterprise                       


 *------------------------------------------------------------------*
 |                                                                  |
 |   W E L C O M E   T O   T H E   A N S Y S (R)  P R O G R A M     |
 |                                                                  |
 *------------------------------------------------------------------*




 ***************************************************************
 *            ANSYS 2021 R1          LEGAL NOTICES             *
 ***************************************************************
 *                                                             *
 * Copyright 1971-2021 ANSYS, Inc.  All rights reserved.       *
 * Unauthorized use, distribution or duplication is            *
 * prohibited.                                                 *
 *                                                             *
 * Ansys is a registered trademark of ANSYS, Inc. or its       *
 * subsidiaries in the United States or other countries.       *
 * See the ANSYS, Inc. online documentation or the ANSYS, Inc. *
 * documentation CD or online help for the complete Legal      *
 * Notice.                                                     *
 *                                                             *
 ***************************************************************
 *                                                             *
 * THIS ANSYS SOFTWARE PRODUCT AND PROGRAM DOCUMENTATION       *
 * INCLUDE TRADE SECRETS AND CONFIDENTIAL AND PROPRIETARY      *
 * PRODUCTS OF ANSYS, INC., ITS SUBSIDIARIES, OR LICENSORS.    *
 * The software products and documentation are furnished by    *
 * ANSYS, Inc. or its subsidiaries under a software license    *
 * agreement that contains provisions concerning               *
 * non-disclosure, copying, length and nature of use,          *
 * compliance with exporting laws, warranties, disclaimers,    *
 * limitations of liability, and remedies, and other           *
 * provisions.  The software products and documentation may be *
 * used, disclosed, transferred, or copied only in accordance  *
 * with the terms and conditions of that software license      *
 * agreement.                                                  *
 *                                                             *
 * ANSYS, Inc. is a UL registered                              *
 * ISO 9001:2015 company.                                      *
 *                                                             *
 ***************************************************************
 *                                                             *
 * This product is subject to U.S. laws governing export and   *
 * re-export.                                                  *
 *                                                             *
 * For U.S. Government users, except as specifically granted   *
 * by the ANSYS, Inc. software license agreement, the use,     *
 * duplication, or disclosure by the United States Government  *
 * is subject to restrictions stated in the ANSYS, Inc.        *
 * software license agreement and FAR 12.212 (for non-DOD      *
 * licenses).                                                  *
 *                                                             *
 ***************************************************************

 2021 R1 
     
 Point Releases and Patches installed:   
     
 ANSYS, Inc. Products 2021 R1
 SpaceClaim 2021 R1  
 Discovery 2021 R1   
 ANSYS Sherlock 2021 R1  
 Autodyn 2021 R1 
 LS-DYNA 2021 R1 
 CFX (includes CFD-Post) 2021 R1 
 Chemkin 2021 R1 
 EnSight 2021 R1 
 FENSAP-ICE 2021 R1  
 Fluent (includes CFD-Post) 2021 R1  
 Forte (includes EnSight) 2021 R1
 Polyflow (includes CFD-Post) 2021 R1
 TurboGrid 2021 R1   
 ICEM CFD 2021 R1
 Aqwa 2021 R1
 SPEOS 2021 R1   
 Mechanical Products 2021 R1 
 Additive 2021 R1
 Icepak (includes CFD-Post) 2021 R1  
 ACIS Geometry Interface 2021 R1 
 AutoCAD Geometry Interface 2021 R1  
 Catia, Version 4 Geometry Interface 2021 R1 
 Catia, Version 5 Geometry Interface 2021 R1 
 Catia, Version 6 Geometry Interface 2021 R1 
 Creo Elements/Direct Modeling Geometry Interface 2021 R1
 Creo Parametric Geometry Interface 2021 R1  
 Inventor Geometry Interface 2021 R1 
 JTOpen Geometry Interface 2021 R1   
 NX Geometry Interface 2021 R1   
 Parasolid Geometry Interface  2021 R1   
 Solid Edge Geometry Interface 2021 R1   
 SOLIDWORKS Geometry Interface 2021 R1   
 ANSYS, Inc. License Manager 2021 R1 


          *****  ANSYS COMMAND LINE ARGUMENTS  *****
  BATCH MODE REQUESTED (-b)    = NOLIST
  INPUT FILE COPY MODE (-c)    = COPY
  SHARED MEMORY PARALLEL REQUESTED
    SINGLE PROCESS WITH   4 THREADS REQUESTED
    TOTAL OF     4 CORES REQUESTED
  INPUT FILE NAME              = E:\救珛扢數\workbench\4℅4諍醱\_ProjectScratch\Scr2561\dummy.dat
  OUTPUT FILE NAME             = E:\救珛扢數\workbench\4℅4諍醱\_ProjectScratch\Scr2561\solve.out
  START-UP FILE MODE           = NOREAD
  STOP FILE MODE               = NOREAD

 RELEASE= 2021 R1              BUILD= 21.1      UP20201109   VERSION=WINDOWS x64 
 CURRENT JOBNAME=file  21:42:00  MAR 22, 2026 CP=      0.891


 PARAMETER _DS_PROGRESS =     999.0000000    

 /INPUT FILE= ds.dat  LINE=       0



 DO NOT WRITE ELEMENT RESULTS INTO DATABASE

 *GET  _WALLSTRT  FROM  ACTI  ITEM=TIME WALL  VALUE=  21.7000000    

 TITLE= 
 _________________--__ (D5)                                                    

  ACT Extensions:
      LSDYNA, 2021.1
      5f463412-bd3e-484b-87e7-cbc0a665e474, wbex
  

 SET PARAMETER DIMENSIONS ON  _WB_PROJECTSCRATCH_DIR
  TYPE=STRI  DIMENSIONS=      248        1        1

 PARAMETER _WB_PROJECTSCRATCH_DIR(1) = E:\救珛扢數\workbench\4℅4諍醱\_ProjectScratch\Scr2561\

 SET PARAMETER DIMENSIONS ON  _WB_SOLVERFILES_DIR
  TYPE=STRI  DIMENSIONS=      248        1        1

 PARAMETER _WB_SOLVERFILES_DIR(1) = E:\救珛扢數\workbench\4℅4諍醱\噙怓賦凳﹜侘怓賦凳﹜耀怓﹜迣疏砒茼_files\dp0\SYS-3\MECH\

 SET PARAMETER DIMENSIONS ON  _WB_USERFILES_DIR
  TYPE=STRI  DIMENSIONS=      248        1        1

 PARAMETER _WB_USERFILES_DIR(1) = E:\救珛扢數\workbench\4℅4諍醱\噙怓賦凳﹜侘怓賦凳﹜耀怓﹜迣疏砒茼_files\user_files\
 --- Data in consistent NMM units. See Solving Units in the help system for more

 MPA UNITS SPECIFIED FOR INTERNAL    
  LENGTH      = MILLIMETERS (mm)
  MASS        = TONNE (Mg)
  TIME        = SECONDS (sec)
  TEMPERATURE = CELSIUS (C)
  TOFFSET     = 273.0
  FORCE       = NEWTON (N)
  HEAT        = MILLIJOULES (mJ)

 INPUT  UNITS ARE ALSO SET TO MPA 

 *** ANSYS - ENGINEERING ANALYSIS SYSTEM  RELEASE 2021 R1          21.1     ***
 ANSYS Mechanical Enterprise                       
 00000000  VERSION=WINDOWS x64   21:42:00  MAR 22, 2026 CP=      0.906

 _________________--__ (D5)                                                    



          ***** ANSYS ANALYSIS DEFINITION (PREP7) *****
 *********** Nodes for the whole assembly ***********
 *********** Elements for Body 1 "____4_4-FreeParts|____-____7" ***********
 *********** Send User Defined Coordinate System(s) ***********
 *********** Set Reference Temperature ***********
 *********** Send Materials ***********
 *********** Fixed Supports ***********
 *********** Define Force Using Surface Effect Elements ***********


 ***** ROUTINE COMPLETED *****  CP =         0.953


 --- Number of total nodes = 8070
 --- Number of contact elements = 68
 --- Number of spring elements = 0
 --- Number of bearing elements = 0
 --- Number of solid elements = 4446
 --- Number of condensed parts = 0
 --- Number of total elements = 4514

 *GET  _WALLBSOL  FROM  ACTI  ITEM=TIME WALL  VALUE=  21.7000000    
 ****************************************************************************
 *************************    SOLUTION       ********************************
 ****************************************************************************

 *****  ANSYS SOLUTION ROUTINE  *****


 PERFORM A TRANSIENT ANALYSIS
  THIS WILL BE A NEW ANALYSIS

 LARGE DEFORMATION ANALYSIS

 STEP BOUNDARY CONDITION KEY= 1

 PARAMETER _THICKRATIO =     1.000000000    

 USE PRECONDITIONED CONJUGATE GRADIENT SOLVER
  CONVERGENCE TOLERANCE = 1.00000E-08
  MAXIMUM ITERATION     = NumNode*DofPerNode*  1.0000    

 CONTACT INFORMATION PRINTOUT LEVEL       1

 PERFORM A FULL TRANSIENT ANALYSIS
  USING HHT ALGORITHM

 USE SETTINGS FOR MODERATE SPEED DYNAMIC APPLICATIONS
 SECOND ORDER TRANSIENT PARAMETERS
   GAMMA= 0.1000      (ALPHA= 0.3025      DELTA= 0.6000      ALPHAF= 0.1000      ALPHAM=  0.000    )

 USE FIRST ORDER TRANSIENT PARAMETER THETA=  1.000    

 NLDIAG: Nonlinear diagnostics CONT option is set to ON. 
         Writing frequency : each ITERATION.

 DEFINE RESTART CONTROL FOR LOADSTEP LAST
 AT FREQUENCY OF LAST AND NUMBER FOR OVERWRITE IS   -1

 DELETE RESTART FILES OF ENDSTEP
 ****************************************************
 ******************* SOLVE FOR LS 1 OF 3 ****************

 SELECT       FOR ITEM=TYPE COMPONENT=    
  IN RANGE         2 TO          2 STEP          1

         68  ELEMENTS (OF       4514  DEFINED) SELECTED BY  ESEL  COMMAND.

 SELECT      ALL NODES HAVING ANY ELEMENT IN ELEMENT SET.

        157 NODES (OF       8070  DEFINED) SELECTED FROM
       68 SELECTED ELEMENTS BY NSLE COMMAND.

 SPECIFIED SURFACE LOAD PRES FOR ALL SELECTED ELEMENTS  LKEY =  1   KVAL = 1
      SET ACCORDING TO TABLE PARAMETER = _LOADVARI38X                    

 SPECIFIED SURFACE LOAD PRES FOR ALL SELECTED ELEMENTS  LKEY =  2   KVAL = 1
      SET ACCORDING TO TABLE PARAMETER = _LOADVARI38Y                    

 SPECIFIED SURFACE LOAD PRES FOR ALL SELECTED ELEMENTS  LKEY =  3   KVAL = 1
     VALUES =     0.0000         0.0000         0.0000         0.0000    

 ALL SELECT   FOR ITEM=NODE COMPONENT=    
  IN RANGE         1 TO       8070 STEP          1

       8070  NODES (OF       8070  DEFINED) SELECTED BY NSEL  COMMAND.

 ALL SELECT   FOR ITEM=ELEM COMPONENT=    
  IN RANGE         1 TO       6484 STEP          1

       4514  ELEMENTS (OF       4514  DEFINED) SELECTED BY  ESEL  COMMAND.

 PRINTOUT RESUMED BY /GOP

 DO NOT USE AUTOMATIC TIME STEPPING THIS LOAD STEP

 USE      10 SUBSTEPS INITIALLY THIS LOAD STEP FOR ALL  DEGREES OF FREEDOM
 FOR AUTOMATIC TIME STEPPING:
   USE     10 SUBSTEPS AS A MAXIMUM
   USE     10 SUBSTEPS AS A MINIMUM

 TIME= 0.10000    

 INCLUDE TRANSIENT EFFECTS FOR  ALL DEGREES OF FREEDOM THIS LOAD STEP

 ERASE THE CURRENT DATABASE OUTPUT CONTROL TABLE.


 WRITE ALL  ITEMS TO THE DATABASE WITH A FREQUENCY OF NONE
   FOR ALL APPLICABLE ENTITIES

 WRITE NSOL ITEMS TO THE DATABASE WITH A FREQUENCY OF ALL 
   FOR ALL APPLICABLE ENTITIES

 WRITE RSOL ITEMS TO THE DATABASE WITH A FREQUENCY OF ALL 
   FOR ALL APPLICABLE ENTITIES

 WRITE EANG ITEMS TO THE DATABASE WITH A FREQUENCY OF ALL 
   FOR ALL APPLICABLE ENTITIES

 WRITE ETMP ITEMS TO THE DATABASE WITH A FREQUENCY OF ALL 
   FOR ALL APPLICABLE ENTITIES

 WRITE VENG ITEMS TO THE DATABASE WITH A FREQUENCY OF ALL 
   FOR ALL APPLICABLE ENTITIES

 WRITE STRS ITEMS TO THE DATABASE WITH A FREQUENCY OF ALL 
   FOR ALL APPLICABLE ENTITIES

 WRITE EPEL ITEMS TO THE DATABASE WITH A FREQUENCY OF ALL 
   FOR ALL APPLICABLE ENTITIES

 WRITE EPPL ITEMS TO THE DATABASE WITH A FREQUENCY OF ALL 
   FOR ALL APPLICABLE ENTITIES

 WRITE CONT ITEMS TO THE DATABASE WITH A FREQUENCY OF ALL 
   FOR ALL APPLICABLE ENTITIES

 WRITE V    ITEMS TO THE DATABASE WITH A FREQUENCY OF ALL 
   FOR ALL APPLICABLE ENTITIES

 WRITE A    ITEMS TO THE DATABASE WITH A FREQUENCY OF ALL 
   FOR ALL APPLICABLE ENTITIES

 *GET  ANSINTER_  FROM  ACTI  ITEM=INT        VALUE=  0.00000000    

 *IF  ANSINTER_                         ( =   0.00000     )  NE  
      0                                 ( =   0.00000     )  THEN    

 *ENDIF

 *****  ANSYS SOLVE    COMMAND  *****

 *** WARNING ***                         CP =       1.016   TIME= 21:42:00
 Element shape checking is currently inactive.  Issue SHPP,ON or         
 SHPP,WARN to reactivate, if desired.                                    

 *** NOTE ***                            CP =       1.016   TIME= 21:42:00
 The model data was checked and warning messages were found.             
  Please review output or errors file (                                  
 E:\救珛扢數\workbench\4℅4諍醱\_ProjectScratch\Scr2561\file.err ) for   
 these warning messages.                                                 

 *** SELECTION OF ELEMENT TECHNOLOGIES FOR APPLICABLE ELEMENTS ***
      --- GIVE SUGGESTIONS AND RESET THE KEY OPTIONS ---

 ELEMENT TYPE         1 IS SOLID187. IT IS NOT ASSOCIATED WITH FULLY INCOMPRESSIBLE
 HYPERELASTIC MATERIALS. NO SUGGESTION IS AVAILABLE AND NO RESETTING IS NEEDED.



 *** ANSYS - ENGINEERING ANALYSIS SYSTEM  RELEASE 2021 R1          21.1     ***
 ANSYS Mechanical Enterprise                       
 00000000  VERSION=WINDOWS x64   21:42:00  MAR 22, 2026 CP=      1.016

 _________________--__ (D5)                                                    



                       S O L U T I O N   O P T I O N S

   PROBLEM DIMENSIONALITY. . . . . . . . . . . . .3-D                  
   DEGREES OF FREEDOM. . . . . . UX   UY   UZ  
   ANALYSIS TYPE . . . . . . . . . . . . . . . . .TRANSIENT            
      SOLUTION METHOD. . . . . . . . . . . . . . .FULL                 
   OFFSET TEMPERATURE FROM ABSOLUTE ZERO . . . . .  273.15    
   NONLINEAR GEOMETRIC EFFECTS . . . . . . . . . .ON
   EQUATION SOLVER OPTION. . . . . . . . . . . . .PCG                
      TOLERANCE. . . . . . . . . . . . . . . . . . 1.00000E-08
   NEWTON-RAPHSON OPTION . . . . . . . . . . . . .PROGRAM CHOSEN   
   GLOBALLY ASSEMBLED MATRIX . . . . . . . . . . .SYMMETRIC  

 *** WARNING ***                         CP =       1.016   TIME= 21:42:00
 Material number 2 (used by element 6417) should normally have at least  
 one MP or one TB type command associated with it.  Output of energy by  
 material may not be available.                                          

 *** NOTE ***                            CP =       1.078   TIME= 21:42:00
 The step data was checked and warning messages were found.              
  Please review output or errors file (                                  
 E:\救珛扢數\workbench\4℅4諍醱\_ProjectScratch\Scr2561\file.err ) for   
 these warning messages.                                                 

 *** NOTE ***                            CP =       1.078   TIME= 21:42:00
 This nonlinear analysis defaults to using the full Newton-Raphson       
 solution procedure.  This can be modified using the NROPT command.      

 *** NOTE ***                            CP =       1.078   TIME= 21:42:00
 The conditions for direct assembly have been met.  No .emat or .erot    
 files will be produced.                                                 

                      L O A D   S T E P   O P T I O N S

   LOAD STEP NUMBER. . . . . . . . . . . . . . . .     1
   TIME AT END OF THE LOAD STEP. . . . . . . . . . 0.10000    
   NUMBER OF SUBSTEPS. . . . . . . . . . . . . . .    10
   MAXIMUM NUMBER OF EQUILIBRIUM ITERATIONS. . . .    15
   STEP CHANGE BOUNDARY CONDITIONS . . . . . . . .   YES
   STRESS-STIFFENING . . . . . . . . . . . . . . .    ON
   TRANSIENT (INERTIA) EFFECTS
      STRUCTURAL DOFS. . . . . . . . . . . . . . .    ON
   TRANSIENT INTEGRATION PARAMETERS
      GAMMA. . . . . . . . . . . . . . . . . . . . 0.10000    
      ALPHA. . . . . . . . . . . . . . . . . . . . 0.30250    
      DELTA. . . . . . . . . . . . . . . . . . . . 0.60000    
      USING HHT TIME INTEGRATION
      ALPHAF . . . . . . . . . . . . . . . . . . . 0.10000    
      ALPHAM . . . . . . . . . . . . . . . . . . .  0.0000    
   TERMINATE ANALYSIS IF NOT CONVERGED . . . . . .YES (EXIT)  
   CONVERGENCE CONTROLS. . . . . . . . . . . . . .USE DEFAULTS
   PRINT OUTPUT CONTROLS . . . . . . . . . . . . .NO PRINTOUT
   DATABASE OUTPUT CONTROLS
      ITEM     FREQUENCY   COMPONENT
       ALL       NONE               
      NSOL        ALL               
      RSOL        ALL               
      EANG        ALL               
      ETMP        ALL               
      VENG        ALL               
      STRS        ALL               
      EPEL        ALL               
      EPPL        ALL               
      CONT        ALL               
      V           ALL               
      A           ALL               


 SOLUTION MONITORING INFO IS WRITTEN TO FILE= file.mntr                                                                                                                                                                                                                                                           
 MAXIMUM NUMBER OF EQUILIBRIUM ITERATIONS HAS BEEN MODIFIED              
  TO BE, NEQIT = 22, BY SOLUTION CONTROL LOGIC.                          


 *** NOTE ***                            CP =       1.469   TIME= 21:42:00
 The PCG solver has automatically set the level of difficulty for this   
 model to 1.                                                             


                         ***********  PRECISE MASS SUMMARY  ***********

   TOTAL RIGID BODY MASS MATRIX ABOUT ORIGIN
               Translational mass               |   Coupled translational/rotational mass
        0.55670E-04    0.0000        0.0000     |     0.0000       0.34528E-08  -0.27834E-03
         0.0000       0.55670E-04    0.0000     |   -0.34528E-08    0.0000      -0.27779E-07
         0.0000        0.0000       0.55670E-04 |    0.27834E-03   0.27779E-07    0.0000    
     ------------------------------------------ | ------------------------------------------
                                                |         Rotational mass (inertia)
                                                |    0.25336E-01   0.21478E-06  -0.35229E-07
                                                |    0.21478E-06   0.47024E-01  -0.22034E-07
                                                |   -0.35229E-07  -0.22034E-07   0.25336E-01

   TOTAL MASS = 0.55670E-04
     The mass principal axes coincide with the global Cartesian axes

   CENTER OF MASS (X,Y,Z)=  -0.49900E-03    4.9999       0.62022E-04

   TOTAL INERTIA ABOUT CENTER OF MASS
        0.23944E-01   0.75892E-07  -0.35231E-07
        0.75892E-07   0.47024E-01  -0.47700E-08
       -0.35231E-07  -0.47700E-08   0.23944E-01
     The inertia principal axes coincide with the global Cartesian axes


  *** MASS SUMMARY BY ELEMENT TYPE ***

  TYPE      MASS
     1  0.556700E-04

 Range of element maximum matrix coefficients in global coordinates
 Maximum = 1338935.42 at element 3487.                                   
 Minimum = 52345.538 at element 2184.                                    

   *** ELEMENT MATRIX FORMULATION TIMES
     TYPE    NUMBER   ENAME      TOTAL CP  AVE CP

        1      4446  SOLID187      3.062   0.000689
        2        68  SURF154       0.125   0.001838
 Time at end of element matrix formulation CP = 2.375.                   

 ALL CURRENT ANSYS DATA WRITTEN TO FILE NAME= file.rdb
  FOR POSSIBLE RESUME FROM THIS POINT
     FORCE CONVERGENCE VALUE  =   0.000      CRITERION=  0.5102E-04

 PRECONDITIONED SOLVER CP TIME      =     0.641
 PRECONDITIONED SOLVER ELAPSED TIME =     0.184
     DISP CONVERGENCE VALUE   =   0.000      CRITERION=  0.5102E-13 <<< CONVERGED
    EQUIL ITER   1 COMPLETED.  NEW TRIANG MATRIX.  MAX DOF INC=   0.000    
     FORCE CONVERGENCE VALUE  =   0.000      CRITERION=  0.5206E-04 <<< CONVERGED

 *** WARNING ***                         CP =       4.578   TIME= 21:42:01
 A reference force value times the tolerance is used by the              
 Newton-Raphson method for checking convergence.  The calculated         
 reference FORCE CONVERGENCE VALUE = 0 is less than a threshold.  This   
 threshold is internally calculated.  You can overwrite it by            
 specifying MINREF on the CNVTOL command.  Check results carefully.      
     FORCE CONVERGENCE VALUE  =   0.000      CRITERION=  0.5312E-04 <<< CONVERGED
    >>> SOLUTION CONVERGED AFTER EQUILIBRIUM ITERATION   2

   *** ELEMENT RESULT CALCULATION TIMES
     TYPE    NUMBER   ENAME      TOTAL CP  AVE CP

        1      4446  SOLID187      5.047   0.001135
        2        68  SURF154       0.125   0.001838

   *** NODAL LOAD CALCULATION TIMES
     TYPE    NUMBER   ENAME      TOTAL CP  AVE CP

        1      4446  SOLID187      0.016   0.000004
        2        68  SURF154       0.000   0.000000
 *** LOAD STEP     1   SUBSTEP     1  COMPLETED.    CUM ITER =      2
 *** TIME =  0.100000E-01     TIME INC =  0.100000E-01

     FORCE CONVERGENCE VALUE  =   0.000      CRITERION=  0.5102E-04
     DISP CONVERGENCE VALUE   =   0.000      CRITERION=  0.5102E-13 <<< CONVERGED
    EQUIL ITER   1 COMPLETED.  NEW TRIANG MATRIX.  MAX DOF INC=   0.000    
     FORCE CONVERGENCE VALUE  =   0.000      CRITERION=  0.5206E-04 <<< CONVERGED
    >>> SOLUTION CONVERGED AFTER EQUILIBRIUM ITERATION   1
 *** LOAD STEP     1   SUBSTEP     2  COMPLETED.    CUM ITER =      3
 *** TIME =  0.200000E-01     TIME INC =  0.100000E-01

     FORCE CONVERGENCE VALUE  =   0.000      CRITERION=  0.5102E-04
     DISP CONVERGENCE VALUE   =   0.000      CRITERION=  0.5102E-13 <<< CONVERGED
    EQUIL ITER   1 COMPLETED.  NEW TRIANG MATRIX.  MAX DOF INC=   0.000    
     FORCE CONVERGENCE VALUE  =   0.000      CRITERION=  0.5206E-04 <<< CONVERGED
    >>> SOLUTION CONVERGED AFTER EQUILIBRIUM ITERATION   1
 *** LOAD STEP     1   SUBSTEP     3  COMPLETED.    CUM ITER =      4
 *** TIME =  0.300000E-01     TIME INC =  0.100000E-01

     FORCE CONVERGENCE VALUE  =   0.000      CRITERION=  0.5102E-04
     DISP CONVERGENCE VALUE   =   0.000      CRITERION=  0.5102E-13 <<< CONVERGED
    EQUIL ITER   1 COMPLETED.  NEW TRIANG MATRIX.  MAX DOF INC=   0.000    
     FORCE CONVERGENCE VALUE  =   0.000      CRITERION=  0.5206E-04 <<< CONVERGED
    >>> SOLUTION CONVERGED AFTER EQUILIBRIUM ITERATION   1
 *** LOAD STEP     1   SUBSTEP     4  COMPLETED.    CUM ITER =      5
 *** TIME =  0.400000E-01     TIME INC =  0.100000E-01

     FORCE CONVERGENCE VALUE  =   0.000      CRITERION=  0.5102E-04
     DISP CONVERGENCE VALUE   =   0.000      CRITERION=  0.5102E-13 <<< CONVERGED
    EQUIL ITER   1 COMPLETED.  NEW TRIANG MATRIX.  MAX DOF INC=   0.000    
     FORCE CONVERGENCE VALUE  =   0.000      CRITERION=  0.5206E-04 <<< CONVERGED
    >>> SOLUTION CONVERGED AFTER EQUILIBRIUM ITERATION   1
 *** LOAD STEP     1   SUBSTEP     5  COMPLETED.    CUM ITER =      6
 *** TIME =  0.500000E-01     TIME INC =  0.100000E-01

     FORCE CONVERGENCE VALUE  =   0.000      CRITERION=  0.5102E-04
     DISP CONVERGENCE VALUE   =   0.000      CRITERION=  0.5102E-13 <<< CONVERGED
    EQUIL ITER   1 COMPLETED.  NEW TRIANG MATRIX.  MAX DOF INC=   0.000    
     FORCE CONVERGENCE VALUE  =   0.000      CRITERION=  0.5206E-04 <<< CONVERGED
    >>> SOLUTION CONVERGED AFTER EQUILIBRIUM ITERATION   1
 *** LOAD STEP     1   SUBSTEP     6  COMPLETED.    CUM ITER =      7
 *** TIME =  0.600000E-01     TIME INC =  0.100000E-01

     FORCE CONVERGENCE VALUE  =   0.000      CRITERION=  0.5102E-04
     DISP CONVERGENCE VALUE   =   0.000      CRITERION=  0.5102E-13 <<< CONVERGED
    EQUIL ITER   1 COMPLETED.  NEW TRIANG MATRIX.  MAX DOF INC=   0.000    
     FORCE CONVERGENCE VALUE  =   0.000      CRITERION=  0.5206E-04 <<< CONVERGED
    >>> SOLUTION CONVERGED AFTER EQUILIBRIUM ITERATION   1
 *** LOAD STEP     1   SUBSTEP     7  COMPLETED.    CUM ITER =      8
 *** TIME =  0.700000E-01     TIME INC =  0.100000E-01

     FORCE CONVERGENCE VALUE  =   0.000      CRITERION=  0.5102E-04
     DISP CONVERGENCE VALUE   =   0.000      CRITERION=  0.5102E-13 <<< CONVERGED
    EQUIL ITER   1 COMPLETED.  NEW TRIANG MATRIX.  MAX DOF INC=   0.000    
     FORCE CONVERGENCE VALUE  =   0.000      CRITERION=  0.5206E-04 <<< CONVERGED
    >>> SOLUTION CONVERGED AFTER EQUILIBRIUM ITERATION   1
 *** LOAD STEP     1   SUBSTEP     8  COMPLETED.    CUM ITER =      9
 *** TIME =  0.800000E-01     TIME INC =  0.100000E-01

     FORCE CONVERGENCE VALUE  =   0.000      CRITERION=  0.5102E-04
     DISP CONVERGENCE VALUE   =   0.000      CRITERION=  0.5102E-13 <<< CONVERGED
    EQUIL ITER   1 COMPLETED.  NEW TRIANG MATRIX.  MAX DOF INC=   0.000    
     FORCE CONVERGENCE VALUE  =   0.000      CRITERION=  0.5206E-04 <<< CONVERGED
    >>> SOLUTION CONVERGED AFTER EQUILIBRIUM ITERATION   1
 *** LOAD STEP     1   SUBSTEP     9  COMPLETED.    CUM ITER =     10
 *** TIME =  0.900000E-01     TIME INC =  0.100000E-01

     FORCE CONVERGENCE VALUE  =   0.000      CRITERION=  0.5102E-04
     DISP CONVERGENCE VALUE   =   0.000      CRITERION=  0.5102E-13 <<< CONVERGED
    EQUIL ITER   1 COMPLETED.  NEW TRIANG MATRIX.  MAX DOF INC=   0.000    
     FORCE CONVERGENCE VALUE  =   0.000      CRITERION=  0.5206E-04 <<< CONVERGED
    >>> SOLUTION CONVERGED AFTER EQUILIBRIUM ITERATION   1
 *** LOAD STEP     1   SUBSTEP    10  COMPLETED.    CUM ITER =     11
 *** TIME =  0.100000         TIME INC =  0.100000E-01


 *** ANSYS BINARY FILE STATISTICS
  BUFFER SIZE USED= 16384
       14.750 MB WRITTEN ON ELEMENT SAVED DATA FILE: file.esav
        7.375 MB WRITTEN ON RESULTS FILE: file.rst
 *************** Write FE CONNECTORS *********

 WRITE OUT CONSTRAINT EQUATIONS TO FILE= file.ce                                                                                                                                                                                                                                                             
 ****************************************************
 *************** FINISHED SOLVE FOR LS 1 *************
 ****************************************************
 ******************* SOLVE FOR LS 2 OF 3 ****************

 PRINTOUT RESUMED BY /GOP

 DO NOT USE AUTOMATIC TIME STEPPING THIS LOAD STEP

 USE     800 SUBSTEPS INITIALLY THIS LOAD STEP FOR ALL  DEGREES OF FREEDOM
 FOR AUTOMATIC TIME STEPPING:
   USE    800 SUBSTEPS AS A MAXIMUM
   USE    800 SUBSTEPS AS A MINIMUM

 TIME= 0.10000    

 INCLUDE TRANSIENT EFFECTS FOR  ALL DEGREES OF FREEDOM THIS LOAD STEP

 ERASE THE CURRENT DATABASE OUTPUT CONTROL TABLE.


 WRITE ALL  ITEMS TO THE DATABASE WITH A FREQUENCY OF NONE
   FOR ALL APPLICABLE ENTITIES

 WRITE NSOL ITEMS TO THE DATABASE WITH A FREQUENCY OF ALL 
   FOR ALL APPLICABLE ENTITIES

 WRITE RSOL ITEMS TO THE DATABASE WITH A FREQUENCY OF ALL 
   FOR ALL APPLICABLE ENTITIES

 WRITE EANG ITEMS TO THE DATABASE WITH A FREQUENCY OF ALL 
   FOR ALL APPLICABLE ENTITIES

 WRITE ETMP ITEMS TO THE DATABASE WITH A FREQUENCY OF ALL 
   FOR ALL APPLICABLE ENTITIES

 WRITE VENG ITEMS TO THE DATABASE WITH A FREQUENCY OF ALL 
   FOR ALL APPLICABLE ENTITIES

 WRITE STRS ITEMS TO THE DATABASE WITH A FREQUENCY OF ALL 
   FOR ALL APPLICABLE ENTITIES

 WRITE EPEL ITEMS TO THE DATABASE WITH A FREQUENCY OF ALL 
   FOR ALL APPLICABLE ENTITIES

 WRITE EPPL ITEMS TO THE DATABASE WITH A FREQUENCY OF ALL 
   FOR ALL APPLICABLE ENTITIES

 WRITE CONT ITEMS TO THE DATABASE WITH A FREQUENCY OF ALL 
   FOR ALL APPLICABLE ENTITIES

 WRITE V    ITEMS TO THE DATABASE WITH A FREQUENCY OF ALL 
   FOR ALL APPLICABLE ENTITIES

 WRITE A    ITEMS TO THE DATABASE WITH A FREQUENCY OF ALL 
   FOR ALL APPLICABLE ENTITIES

 *****  ANSYS SOLVE    COMMAND  *****

 *** WARNING ***                         CP =      64.672   TIME= 21:42:21
 Material number 2 (used by element 6417) should normally have at least  
 one MP or one TB type command associated with it.  Output of energy by  
 material may not be available.                                          

 *** NOTE ***                            CP =      64.672   TIME= 21:42:21
 The step data was checked and warning messages were found.              
  Please review output or errors file (                                  
 E:\救珛扢數\workbench\4℅4諍醱\_ProjectScratch\Scr2561\file.err ) for   
 these warning messages.                                                 

 *** NOTE ***                            CP =      64.672   TIME= 21:42:21
 This nonlinear analysis defaults to using the full Newton-Raphson       
 solution procedure.  This can be modified using the NROPT command.      

 *** ANSYS - ENGINEERING ANALYSIS SYSTEM  RELEASE 2021 R1          21.1     ***
 ANSYS Mechanical Enterprise                       
 00000000  VERSION=WINDOWS x64   21:42:21  MAR 22, 2026 CP=     64.828

 _________________--__ (D5)                                                    



                      L O A D   S T E P   O P T I O N S

   LOAD STEP NUMBER. . . . . . . . . . . . . . . .     2
   TIME AT END OF THE LOAD STEP. . . . . . . . . . 0.10000    
   NUMBER OF SUBSTEPS. . . . . . . . . . . . . . .   800
   MAXIMUM NUMBER OF EQUILIBRIUM ITERATIONS. . . .    15
   STEP CHANGE BOUNDARY CONDITIONS . . . . . . . .   YES
   STRESS-STIFFENING . . . . . . . . . . . . . . .    ON
   TRANSIENT (INERTIA) EFFECTS
      STRUCTURAL DOFS. . . . . . . . . . . . . . .    ON
   TRANSIENT INTEGRATION PARAMETERS
      GAMMA. . . . . . . . . . . . . . . . . . . . 0.10000    
      ALPHA. . . . . . . . . . . . . . . . . . . . 0.30250    
      DELTA. . . . . . . . . . . . . . . . . . . . 0.60000    
      USING HHT TIME INTEGRATION
      ALPHAF . . . . . . . . . . . . . . . . . . . 0.10000    
      ALPHAM . . . . . . . . . . . . . . . . . . .  0.0000    
   TERMINATE ANALYSIS IF NOT CONVERGED . . . . . .YES (EXIT)  
   CONVERGENCE CONTROLS. . . . . . . . . . . . . .USE DEFAULTS
   PRINT OUTPUT CONTROLS . . . . . . . . . . . . .NO PRINTOUT
   DATABASE OUTPUT CONTROLS
      ITEM     FREQUENCY   COMPONENT
       ALL       NONE               
      NSOL        ALL               
      RSOL        ALL               
      EANG        ALL               
      ETMP        ALL               
      VENG        ALL               
      STRS        ALL               
      EPEL        ALL               
      EPPL        ALL               
      CONT        ALL               
      V           ALL               
      A           ALL               


 SOLUTION MONITORING INFO IS WRITTEN TO FILE= file.mntr                                                                                                                                                                                                                                                           
 MAXIMUM NUMBER OF EQUILIBRIUM ITERATIONS HAS BEEN MODIFIED              
  TO BE, NEQIT = 22, BY SOLUTION CONTROL LOGIC.                          

     FORCE CONVERGENCE VALUE  =   0.000      CRITERION=  0.5102E-04
     DISP CONVERGENCE VALUE   =   0.000      CRITERION=  0.5102E-13 <<< CONVERGED
    EQUIL ITER   1 COMPLETED.  NEW TRIANG MATRIX.  MAX DOF INC=   0.000    
     FORCE CONVERGENCE VALUE  =   0.000      CRITERION=  0.5206E-04 <<< CONVERGED

 *** WARNING ***                         CP =      69.594   TIME= 21:42:22
 A reference force value times the tolerance is used by the              
 Newton-Raphson method for checking convergence.  The calculated         
 reference FORCE CONVERGENCE VALUE = 0 is less than a threshold.  This   
 threshold is internally calculated.  You can overwrite it by            
 specifying MINREF on the CNVTOL command.  Check results carefully.      
    >>> SOLUTION CONVERGED AFTER EQUILIBRIUM ITERATION   1
 *** LOAD STEP     2   SUBSTEP     1  COMPLETED.    CUM ITER =     12
 *** TIME =  0.100000         TIME INC =  0.250000E-08

     FORCE CONVERGENCE VALUE  =   0.000      CRITERION=  0.5102E-04
     DISP CONVERGENCE VALUE   =   0.000      CRITERION=  0.5102E-13 <<< CONVERGED
    EQUIL ITER   1 COMPLETED.  NEW TRIANG MATRIX.  MAX DOF INC=   0.000    
     FORCE CONVERGENCE VALUE  =   0.000      CRITERION=  0.5206E-04 <<< CONVERGED
    >>> SOLUTION CONVERGED AFTER EQUILIBRIUM ITERATION   1
 *** LOAD STEP     2   SUBSTEP     2  COMPLETED.    CUM ITER =     13
 *** TIME =  0.100000         TIME INC =  0.250000E-08

     FORCE CONVERGENCE VALUE  =   0.000      CRITERION=  0.5102E-04
     DISP CONVERGENCE VALUE   =   0.000      CRITERION=  0.5102E-13 <<< CONVERGED
    EQUIL ITER   1 COMPLETED.  NEW TRIANG MATRIX.  MAX DOF INC=   0.000    
     FORCE CONVERGENCE VALUE  =   0.000      CRITERION=  0.5206E-04 <<< CONVERGED
    >>> SOLUTION CONVERGED AFTER EQUILIBRIUM ITERATION   1
 *** LOAD STEP     2   SUBSTEP     3  COMPLETED.    CUM ITER =     14
 *** TIME =  0.100000         TIME INC =  0.250000E-08

     FORCE CONVERGENCE VALUE  =   0.000      CRITERION=  0.5102E-04
     DISP CONVERGENCE VALUE   =   0.000      CRITERION=  0.5102E-13 <<< CONVERGED
    EQUIL ITER   1 COMPLETED.  NEW TRIANG MATRIX.  MAX DOF INC=   0.000    
     FORCE CONVERGENCE VALUE  =   0.000      CRITERION=  0.5206E-04 <<< CONVERGED
    >>> SOLUTION CONVERGED AFTER EQUILIBRIUM ITERATION   1
 *** LOAD STEP     2   SUBSTEP     4  COMPLETED.    CUM ITER =     15
 *** TIME =  0.100000         TIME INC =  0.250000E-08

     FORCE CONVERGENCE VALUE  =   0.000      CRITERION=  0.5102E-04
     DISP CONVERGENCE VALUE   =   0.000      CRITERION=  0.5102E-13 <<< CONVERGED
    EQUIL ITER   1 COMPLETED.  NEW TRIANG MATRIX.  MAX DOF INC=   0.000    
     FORCE CONVERGENCE VALUE  =   0.000      CRITERION=  0.5206E-04 <<< CONVERGED
    >>> SOLUTION CONVERGED AFTER EQUILIBRIUM ITERATION   1
 *** LOAD STEP     2   SUBSTEP     5  COMPLETED.    CUM ITER =     16
 *** TIME =  0.100000         TIME INC =  0.250000E-08

     FORCE CONVERGENCE VALUE  =   0.000      CRITERION=  0.5102E-04
     DISP CONVERGENCE VALUE   =   0.000      CRITERION=  0.5102E-13 <<< CONVERGED
    EQUIL ITER   1 COMPLETED.  NEW TRIANG MATRIX.  MAX DOF INC=   0.000    
     FORCE CONVERGENCE VALUE  =   0.000      CRITERION=  0.5206E-04 <<< CONVERGED
    >>> SOLUTION CONVERGED AFTER EQUILIBRIUM ITERATION   1
 *** LOAD STEP     2   SUBSTEP     6  COMPLETED.    CUM ITER =     17
 *** TIME =  0.100000         TIME INC =  0.250000E-08

     FORCE CONVERGENCE VALUE  =   0.000      CRITERION=  0.5102E-04
     DISP CONVERGENCE VALUE   =   0.000      CRITERION=  0.5102E-13 <<< CONVERGED
    EQUIL ITER   1 COMPLETED.  NEW TRIANG MATRIX.  MAX DOF INC=   0.000    
     FORCE CONVERGENCE VALUE  =   0.000      CRITERION=  0.5206E-04 <<< CONVERGED
    >>> SOLUTION CONVERGED AFTER EQUILIBRIUM ITERATION   1
 *** LOAD STEP     2   SUBSTEP     7  COMPLETED.    CUM ITER =     18
 *** TIME =  0.100000         TIME INC =  0.250000E-08

     FORCE CONVERGENCE VALUE  =   0.000      CRITERION=  0.5102E-04
     DISP CONVERGENCE VALUE   =   0.000      CRITERION=  0.5102E-13 <<< CONVERGED
    EQUIL ITER   1 COMPLETED.  NEW TRIANG MATRIX.  MAX DOF INC=   0.000    
     FORCE CONVERGENCE VALUE  =   0.000      CRITERION=  0.5206E-04 <<< CONVERGED
    >>> SOLUTION CONVERGED AFTER EQUILIBRIUM ITERATION   1
 *** LOAD STEP     2   SUBSTEP     8  COMPLETED.    CUM ITER =     19
 *** TIME =  0.100000         TIME INC =  0.250000E-08

     FORCE CONVERGENCE VALUE  =   0.000      CRITERION=  0.5102E-04
     DISP CONVERGENCE VALUE   =   0.000      CRITERION=  0.5102E-13 <<< CONVERGED
    EQUIL ITER   1 COMPLETED.  NEW TRIANG MATRIX.  MAX DOF INC=   0.000    
     FORCE CONVERGENCE VALUE  =   0.000      CRITERION=  0.5206E-04 <<< CONVERGED
    >>> SOLUTION CONVERGED AFTER EQUILIBRIUM ITERATION   1
 *** LOAD STEP     2   SUBSTEP     9  COMPLETED.    CUM ITER =     20
 *** TIME =  0.100000         TIME INC =  0.250000E-08

     FORCE CONVERGENCE VALUE  =   0.000      CRITERION=  0.5102E-04
     DISP CONVERGENCE VALUE   =   0.000      CRITERION=  0.5102E-13 <<< CONVERGED
    EQUIL ITER   1 COMPLETED.  NEW TRIANG MATRIX.  MAX DOF INC=   0.000    
     FORCE CONVERGENCE VALUE  =   0.000      CRITERION=  0.5206E-04 <<< CONVERGED
    >>> SOLUTION CONVERGED AFTER EQUILIBRIUM ITERATION   1
 *** LOAD STEP     2   SUBSTEP    10  COMPLETED.    CUM ITER =     21
 *** TIME =  0.100000         TIME INC =  0.250000E-08

     FORCE CONVERGENCE VALUE  =   0.000      CRITERION=  0.5102E-04
     DISP CONVERGENCE VALUE   =   0.000      CRITERION=  0.5102E-13 <<< CONVERGED
    EQUIL ITER   1 COMPLETED.  NEW TRIANG MATRIX.  MAX DOF INC=   0.000    
     FORCE CONVERGENCE VALUE  =   0.000      CRITERION=  0.5206E-04 <<< CONVERGED
    >>> SOLUTION CONVERGED AFTER EQUILIBRIUM ITERATION   1
 *** LOAD STEP     2   SUBSTEP    11  COMPLETED.    CUM ITER =     22
 *** TIME =  0.100000         TIME INC =  0.250000E-08

     FORCE CONVERGENCE VALUE  =   0.000      CRITERION=  0.5102E-04
     DISP CONVERGENCE VALUE   =   0.000      CRITERION=  0.5102E-13 <<< CONVERGED
    EQUIL ITER   1 COMPLETED.  NEW TRIANG MATRIX.  MAX DOF INC=   0.000    
     FORCE CONVERGENCE VALUE  =   0.000      CRITERION=  0.5206E-04 <<< CONVERGED
    >>> SOLUTION CONVERGED AFTER EQUILIBRIUM ITERATION   1
 *** LOAD STEP     2   SUBSTEP    12  COMPLETED.    CUM ITER =     23
 *** TIME =  0.100000         TIME INC =  0.250000E-08

     FORCE CONVERGENCE VALUE  =   0.000      CRITERION=  0.5102E-04
     DISP CONVERGENCE VALUE   =   0.000      CRITERION=  0.5102E-13 <<< CONVERGED
    EQUIL ITER   1 COMPLETED.  NEW TRIANG MATRIX.  MAX DOF INC=   0.000    
     FORCE CONVERGENCE VALUE  =   0.000      CRITERION=  0.5206E-04 <<< CONVERGED
    >>> SOLUTION CONVERGED AFTER EQUILIBRIUM ITERATION   1
 *** LOAD STEP     2   SUBSTEP    13  COMPLETED.    CUM ITER =     24
 *** TIME =  0.100000         TIME INC =  0.250000E-08

     FORCE CONVERGENCE VALUE  =   0.000      CRITERION=  0.5102E-04
     DISP CONVERGENCE VALUE   =   0.000      CRITERION=  0.5102E-13 <<< CONVERGED
    EQUIL ITER   1 COMPLETED.  NEW TRIANG MATRIX.  MAX DOF INC=   0.000    
     FORCE CONVERGENCE VALUE  =   0.000      CRITERION=  0.5206E-04 <<< CONVERGED
    >>> SOLUTION CONVERGED AFTER EQUILIBRIUM ITERATION   1
 *** LOAD STEP     2   SUBSTEP    14  COMPLETED.    CUM ITER =     25
 *** TIME =  0.100000         TIME INC =  0.250000E-08

     FORCE CONVERGENCE VALUE  =   0.000      CRITERION=  0.5102E-04
     DISP CONVERGENCE VALUE   =   0.000      CRITERION=  0.5102E-13 <<< CONVERGED
    EQUIL ITER   1 COMPLETED.  NEW TRIANG MATRIX.  MAX DOF INC=   0.000    
     FORCE CONVERGENCE VALUE  =   0.000      CRITERION=  0.5206E-04 <<< CONVERGED
    >>> SOLUTION CONVERGED AFTER EQUILIBRIUM ITERATION   1
 *** LOAD STEP     2   SUBSTEP    15  COMPLETED.    CUM ITER =     26
 *** TIME =  0.100000         TIME INC =  0.250000E-08

     FORCE CONVERGENCE VALUE  =   0.000      CRITERION=  0.5102E-04
     DISP CONVERGENCE VALUE   =   0.000      CRITERION=  0.5102E-13 <<< CONVERGED
    EQUIL ITER   1 COMPLETED.  NEW TRIANG MATRIX.  MAX DOF INC=   0.000    
     FORCE CONVERGENCE VALUE  =   0.000      CRITERION=  0.5206E-04 <<< CONVERGED
    >>> SOLUTION CONVERGED AFTER EQUILIBRIUM ITERATION   1
 *** LOAD STEP     2   SUBSTEP    16  COMPLETED.    CUM ITER =     27
 *** TIME =  0.100000         TIME INC =  0.250000E-08

     FORCE CONVERGENCE VALUE  =   0.000      CRITERION=  0.5102E-04
     DISP CONVERGENCE VALUE   =   0.000      CRITERION=  0.5102E-13 <<< CONVERGED
    EQUIL ITER   1 COMPLETED.  NEW TRIANG MATRIX.  MAX DOF INC=   0.000    
     FORCE CONVERGENCE VALUE  =   0.000      CRITERION=  0.5206E-04 <<< CONVERGED
    >>> SOLUTION CONVERGED AFTER EQUILIBRIUM ITERATION   1
 *** LOAD STEP     2   SUBSTEP    17  COMPLETED.    CUM ITER =     28
 *** TIME =  0.100000         TIME INC =  0.250000E-08

     FORCE CONVERGENCE VALUE  =   0.000      CRITERION=  0.5102E-04
     DISP CONVERGENCE VALUE   =   0.000      CRITERION=  0.5102E-13 <<< CONVERGED
    EQUIL ITER   1 COMPLETED.  NEW TRIANG MATRIX.  MAX DOF INC=   0.000    
     FORCE CONVERGENCE VALUE  =   0.000      CRITERION=  0.5206E-04 <<< CONVERGED
    >>> SOLUTION CONVERGED AFTER EQUILIBRIUM ITERATION   1
 *** LOAD STEP     2   SUBSTEP    18  COMPLETED.    CUM ITER =     29
 *** TIME =  0.100000         TIME INC =  0.250000E-08

     FORCE CONVERGENCE VALUE  =   0.000      CRITERION=  0.5102E-04
     DISP CONVERGENCE VALUE   =   0.000      CRITERION=  0.5102E-13 <<< CONVERGED
    EQUIL ITER   1 COMPLETED.  NEW TRIANG MATRIX.  MAX DOF INC=   0.000    
     FORCE CONVERGENCE VALUE  =   0.000      CRITERION=  0.5206E-04 <<< CONVERGED
    >>> SOLUTION CONVERGED AFTER EQUILIBRIUM ITERATION   1
 *** LOAD STEP     2   SUBSTEP    19  COMPLETED.    CUM ITER =     30
 *** TIME =  0.100000         TIME INC =  0.250000E-08

     FORCE CONVERGENCE VALUE  =   0.000      CRITERION=  0.5102E-04
     DISP CONVERGENCE VALUE   =   0.000      CRITERION=  0.5102E-13 <<< CONVERGED
    EQUIL ITER   1 COMPLETED.  NEW TRIANG MATRIX.  MAX DOF INC=   0.000    
     FORCE CONVERGENCE VALUE  =   0.000      CRITERION=  0.5206E-04 <<< CONVERGED
    >>> SOLUTION CONVERGED AFTER EQUILIBRIUM ITERATION   1
 *** LOAD STEP     2   SUBSTEP    20  COMPLETED.    CUM ITER =     31
 *** TIME =  0.100000         TIME INC =  0.250000E-08

     FORCE CONVERGENCE VALUE  =   0.000      CRITERION=  0.5102E-04
     DISP CONVERGENCE VALUE   =   0.000      CRITERION=  0.5102E-13 <<< CONVERGED
    EQUIL ITER   1 COMPLETED.  NEW TRIANG MATRIX.  MAX DOF INC=   0.000    
     FORCE CONVERGENCE VALUE  =   0.000      CRITERION=  0.5206E-04 <<< CONVERGED
    >>> SOLUTION CONVERGED AFTER EQUILIBRIUM ITERATION   1
 *** LOAD STEP     2   SUBSTEP    21  COMPLETED.    CUM ITER =     32
 *** TIME =  0.100000         TIME INC =  0.250000E-08

     FORCE CONVERGENCE VALUE  =   0.000      CRITERION=  0.5102E-04
     DISP CONVERGENCE VALUE   =   0.000      CRITERION=  0.5102E-13 <<< CONVERGED
    EQUIL ITER   1 COMPLETED.  NEW TRIANG MATRIX.  MAX DOF INC=   0.000    
     FORCE CONVERGENCE VALUE  =   0.000      CRITERION=  0.5206E-04 <<< CONVERGED
    >>> SOLUTION CONVERGED AFTER EQUILIBRIUM ITERATION   1
 *** LOAD STEP     2   SUBSTEP    22  COMPLETED.    CUM ITER =     33
 *** TIME =  0.100000         TIME INC =  0.250000E-08

     FORCE CONVERGENCE VALUE  =   0.000      CRITERION=  0.5102E-04
     DISP CONVERGENCE VALUE   =   0.000      CRITERION=  0.5102E-13 <<< CONVERGED
    EQUIL ITER   1 COMPLETED.  NEW TRIANG MATRIX.  MAX DOF INC=   0.000    
     FORCE CONVERGENCE VALUE  =   0.000      CRITERION=  0.5206E-04 <<< CONVERGED
    >>> SOLUTION CONVERGED AFTER EQUILIBRIUM ITERATION   1
 *** LOAD STEP     2   SUBSTEP    23  COMPLETED.    CUM ITER =     34
 *** TIME =  0.100000         TIME INC =  0.250000E-08

     FORCE CONVERGENCE VALUE  =   0.000      CRITERION=  0.5102E-04
     DISP CONVERGENCE VALUE   =   0.000      CRITERION=  0.5102E-13 <<< CONVERGED
    EQUIL ITER   1 COMPLETED.  NEW TRIANG MATRIX.  MAX DOF INC=   0.000    
     FORCE CONVERGENCE VALUE  =   0.000      CRITERION=  0.5206E-04 <<< CONVERGED
    >>> SOLUTION CONVERGED AFTER EQUILIBRIUM ITERATION   1
 *** LOAD STEP     2   SUBSTEP    24  COMPLETED.    CUM ITER =     35
 *** TIME =  0.100000         TIME INC =  0.250000E-08

     FORCE CONVERGENCE VALUE  =   0.000      CRITERION=  0.5102E-04
     DISP CONVERGENCE VALUE   =   0.000      CRITERION=  0.5102E-13 <<< CONVERGED
    EQUIL ITER   1 COMPLETED.  NEW TRIANG MATRIX.  MAX DOF INC=   0.000    
     FORCE CONVERGENCE VALUE  =   0.000      CRITERION=  0.5206E-04 <<< CONVERGED
    >>> SOLUTION CONVERGED AFTER EQUILIBRIUM ITERATION   1
 *** LOAD STEP     2   SUBSTEP    25  COMPLETED.    CUM ITER =     36
 *** TIME =  0.100000         TIME INC =  0.250000E-08

     FORCE CONVERGENCE VALUE  =   0.000      CRITERION=  0.5102E-04
     DISP CONVERGENCE VALUE   =   0.000      CRITERION=  0.5102E-13 <<< CONVERGED
    EQUIL ITER   1 COMPLETED.  NEW TRIANG MATRIX.  MAX DOF INC=   0.000    
     FORCE CONVERGENCE VALUE  =   0.000      CRITERION=  0.5206E-04 <<< CONVERGED
    >>> SOLUTION CONVERGED AFTER EQUILIBRIUM ITERATION   1
 *** LOAD STEP     2   SUBSTEP    26  COMPLETED.    CUM ITER =     37
 *** TIME =  0.100000         TIME INC =  0.250000E-08

     FORCE CONVERGENCE VALUE  =   0.000      CRITERION=  0.5102E-04
     DISP CONVERGENCE VALUE   =   0.000      CRITERION=  0.5102E-13 <<< CONVERGED
    EQUIL ITER   1 COMPLETED.  NEW TRIANG MATRIX.  MAX DOF INC=   0.000    
     FORCE CONVERGENCE VALUE  =   0.000      CRITERION=  0.5206E-04 <<< CONVERGED
    >>> SOLUTION CONVERGED AFTER EQUILIBRIUM ITERATION   1
 *** LOAD STEP     2   SUBSTEP    27  COMPLETED.    CUM ITER =     38
 *** TIME =  0.100000         TIME INC =  0.250000E-08

     FORCE CONVERGENCE VALUE  =   0.000      CRITERION=  0.5102E-04
     DISP CONVERGENCE VALUE   =   0.000      CRITERION=  0.5102E-13 <<< CONVERGED
    EQUIL ITER   1 COMPLETED.  NEW TRIANG MATRIX.  MAX DOF INC=   0.000    
     FORCE CONVERGENCE VALUE  =   0.000      CRITERION=  0.5206E-04 <<< CONVERGED
    >>> SOLUTION CONVERGED AFTER EQUILIBRIUM ITERATION   1
 *** LOAD STEP     2   SUBSTEP    28  COMPLETED.    CUM ITER =     39
 *** TIME =  0.100000         TIME INC =  0.250000E-08

     FORCE CONVERGENCE VALUE  =   0.000      CRITERION=  0.5102E-04
     DISP CONVERGENCE VALUE   =   0.000      CRITERION=  0.5102E-13 <<< CONVERGED
    EQUIL ITER   1 COMPLETED.  NEW TRIANG MATRIX.  MAX DOF INC=   0.000    
     FORCE CONVERGENCE VALUE  =   0.000      CRITERION=  0.5206E-04 <<< CONVERGED
    >>> SOLUTION CONVERGED AFTER EQUILIBRIUM ITERATION   1
 *** LOAD STEP     2   SUBSTEP    29  COMPLETED.    CUM ITER =     40
 *** TIME =  0.100000         TIME INC =  0.250000E-08

     FORCE CONVERGENCE VALUE  =   0.000      CRITERION=  0.5102E-04
     DISP CONVERGENCE VALUE   =   0.000      CRITERION=  0.5102E-13 <<< CONVERGED
    EQUIL ITER   1 COMPLETED.  NEW TRIANG MATRIX.  MAX DOF INC=   0.000    
     FORCE CONVERGENCE VALUE  =   0.000      CRITERION=  0.5206E-04 <<< CONVERGED
    >>> SOLUTION CONVERGED AFTER EQUILIBRIUM ITERATION   1
 *** LOAD STEP     2   SUBSTEP    30  COMPLETED.    CUM ITER =     41
 *** TIME =  0.100000         TIME INC =  0.250000E-08

     FORCE CONVERGENCE VALUE  =   0.000      CRITERION=  0.5102E-04
     DISP CONVERGENCE VALUE   =   0.000      CRITERION=  0.5102E-13 <<< CONVERGED
    EQUIL ITER   1 COMPLETED.  NEW TRIANG MATRIX.  MAX DOF INC=   0.000    
     FORCE CONVERGENCE VALUE  =   0.000      CRITERION=  0.5206E-04 <<< CONVERGED
    >>> SOLUTION CONVERGED AFTER EQUILIBRIUM ITERATION   1
 *** LOAD STEP     2   SUBSTEP    31  COMPLETED.    CUM ITER =     42
 *** TIME =  0.100000         TIME INC =  0.250000E-08

     FORCE CONVERGENCE VALUE  =   0.000      CRITERION=  0.5102E-04
     DISP CONVERGENCE VALUE   =   0.000      CRITERION=  0.5102E-13 <<< CONVERGED
    EQUIL ITER   1 COMPLETED.  NEW TRIANG MATRIX.  MAX DOF INC=   0.000    
     FORCE CONVERGENCE VALUE  =   0.000      CRITERION=  0.5206E-04 <<< CONVERGED
    >>> SOLUTION CONVERGED AFTER EQUILIBRIUM ITERATION   1
 *** LOAD STEP     2   SUBSTEP    32  COMPLETED.    CUM ITER =     43
 *** TIME =  0.100000         TIME INC =  0.250000E-08

     FORCE CONVERGENCE VALUE  =   0.000      CRITERION=  0.5102E-04
     DISP CONVERGENCE VALUE   =   0.000      CRITERION=  0.5102E-13 <<< CONVERGED
    EQUIL ITER   1 COMPLETED.  NEW TRIANG MATRIX.  MAX DOF INC=   0.000    
     FORCE CONVERGENCE VALUE  =   0.000      CRITERION=  0.5206E-04 <<< CONVERGED
    >>> SOLUTION CONVERGED AFTER EQUILIBRIUM ITERATION   1
 *** LOAD STEP     2   SUBSTEP    33  COMPLETED.    CUM ITER =     44
 *** TIME =  0.100000         TIME INC =  0.250000E-08

     FORCE CONVERGENCE VALUE  =   0.000      CRITERION=  0.5102E-04
     DISP CONVERGENCE VALUE   =   0.000      CRITERION=  0.5102E-13 <<< CONVERGED
    EQUIL ITER   1 COMPLETED.  NEW TRIANG MATRIX.  MAX DOF INC=   0.000    
     FORCE CONVERGENCE VALUE  =   0.000      CRITERION=  0.5206E-04 <<< CONVERGED
    >>> SOLUTION CONVERGED AFTER EQUILIBRIUM ITERATION   1
 *** LOAD STEP     2   SUBSTEP    34  COMPLETED.    CUM ITER =     45
 *** TIME =  0.100000         TIME INC =  0.250000E-08

     FORCE CONVERGENCE VALUE  =   0.000      CRITERION=  0.5102E-04
     DISP CONVERGENCE VALUE   =   0.000      CRITERION=  0.5102E-13 <<< CONVERGED
    EQUIL ITER   1 COMPLETED.  NEW TRIANG MATRIX.  MAX DOF INC=   0.000    
     FORCE CONVERGENCE VALUE  =   0.000      CRITERION=  0.5206E-04 <<< CONVERGED
    >>> SOLUTION CONVERGED AFTER EQUILIBRIUM ITERATION   1
 *** LOAD STEP     2   SUBSTEP    35  COMPLETED.    CUM ITER =     46
 *** TIME =  0.100000         TIME INC =  0.250000E-08

     FORCE CONVERGENCE VALUE  =   0.000      CRITERION=  0.5102E-04
     DISP CONVERGENCE VALUE   =   0.000      CRITERION=  0.5102E-13 <<< CONVERGED
    EQUIL ITER   1 COMPLETED.  NEW TRIANG MATRIX.  MAX DOF INC=   0.000    
     FORCE CONVERGENCE VALUE  =   0.000      CRITERION=  0.5206E-04 <<< CONVERGED
    >>> SOLUTION CONVERGED AFTER EQUILIBRIUM ITERATION   1
 *** LOAD STEP     2   SUBSTEP    36  COMPLETED.    CUM ITER =     47
 *** TIME =  0.100000         TIME INC =  0.250000E-08

     FORCE CONVERGENCE VALUE  =   0.000      CRITERION=  0.5102E-04
     DISP CONVERGENCE VALUE   =   0.000      CRITERION=  0.5102E-13 <<< CONVERGED
    EQUIL ITER   1 COMPLETED.  NEW TRIANG MATRIX.  MAX DOF INC=   0.000    
     FORCE CONVERGENCE VALUE  =   0.000      CRITERION=  0.5206E-04 <<< CONVERGED
    >>> SOLUTION CONVERGED AFTER EQUILIBRIUM ITERATION   1
 *** LOAD STEP     2   SUBSTEP    37  COMPLETED.    CUM ITER =     48
 *** TIME =  0.100000         TIME INC =  0.250000E-08

     FORCE CONVERGENCE VALUE  =   0.000      CRITERION=  0.5102E-04
     DISP CONVERGENCE VALUE   =   0.000      CRITERION=  0.5102E-13 <<< CONVERGED
    EQUIL ITER   1 COMPLETED.  NEW TRIANG MATRIX.  MAX DOF INC=   0.000    
     FORCE CONVERGENCE VALUE  =   0.000      CRITERION=  0.5206E-04 <<< CONVERGED
    >>> SOLUTION CONVERGED AFTER EQUILIBRIUM ITERATION   1
 *** LOAD STEP     2   SUBSTEP    38  COMPLETED.    CUM ITER =     49
 *** TIME =  0.100000         TIME INC =  0.250000E-08

     FORCE CONVERGENCE VALUE  =   0.000      CRITERION=  0.5102E-04
     DISP CONVERGENCE VALUE   =   0.000      CRITERION=  0.5102E-13 <<< CONVERGED
    EQUIL ITER   1 COMPLETED.  NEW TRIANG MATRIX.  MAX DOF INC=   0.000    
     FORCE CONVERGENCE VALUE  =   0.000      CRITERION=  0.5206E-04 <<< CONVERGED
    >>> SOLUTION CONVERGED AFTER EQUILIBRIUM ITERATION   1
 *** LOAD STEP     2   SUBSTEP    39  COMPLETED.    CUM ITER =     50
 *** TIME =  0.100000         TIME INC =  0.250000E-08

     FORCE CONVERGENCE VALUE  =   0.000      CRITERION=  0.5102E-04
     DISP CONVERGENCE VALUE   =   0.000      CRITERION=  0.5102E-13 <<< CONVERGED
    EQUIL ITER   1 COMPLETED.  NEW TRIANG MATRIX.  MAX DOF INC=   0.000    
     FORCE CONVERGENCE VALUE  =   0.000      CRITERION=  0.5206E-04 <<< CONVERGED
    >>> SOLUTION CONVERGED AFTER EQUILIBRIUM ITERATION   1
 *** LOAD STEP     2   SUBSTEP    40  COMPLETED.    CUM ITER =     51
 *** TIME =  0.100000         TIME INC =  0.250000E-08

     FORCE CONVERGENCE VALUE  =   0.000      CRITERION=  0.5102E-04
     DISP CONVERGENCE VALUE   =   0.000      CRITERION=  0.5102E-13 <<< CONVERGED
    EQUIL ITER   1 COMPLETED.  NEW TRIANG MATRIX.  MAX DOF INC=   0.000    
     FORCE CONVERGENCE VALUE  =   0.000      CRITERION=  0.5206E-04 <<< CONVERGED
    >>> SOLUTION CONVERGED AFTER EQUILIBRIUM ITERATION   1
 *** LOAD STEP     2   SUBSTEP    41  COMPLETED.    CUM ITER =     52
 *** TIME =  0.100000         TIME INC =  0.250000E-08

     FORCE CONVERGENCE VALUE  =   0.000      CRITERION=  0.5102E-04
     DISP CONVERGENCE VALUE   =   0.000      CRITERION=  0.5102E-13 <<< CONVERGED
    EQUIL ITER   1 COMPLETED.  NEW TRIANG MATRIX.  MAX DOF INC=   0.000    
     FORCE CONVERGENCE VALUE  =   0.000      CRITERION=  0.5206E-04 <<< CONVERGED
    >>> SOLUTION CONVERGED AFTER EQUILIBRIUM ITERATION   1
 *** LOAD STEP     2   SUBSTEP    42  COMPLETED.    CUM ITER =     53
 *** TIME =  0.100000         TIME INC =  0.250000E-08

     FORCE CONVERGENCE VALUE  =   0.000      CRITERION=  0.5102E-04
     DISP CONVERGENCE VALUE   =   0.000      CRITERION=  0.5102E-13 <<< CONVERGED
    EQUIL ITER   1 COMPLETED.  NEW TRIANG MATRIX.  MAX DOF INC=   0.000    
     FORCE CONVERGENCE VALUE  =   0.000      CRITERION=  0.5206E-04 <<< CONVERGED
    >>> SOLUTION CONVERGED AFTER EQUILIBRIUM ITERATION   1
 *** LOAD STEP     2   SUBSTEP    43  COMPLETED.    CUM ITER =     54
 *** TIME =  0.100000         TIME INC =  0.250000E-08

     FORCE CONVERGENCE VALUE  =   0.000      CRITERION=  0.5102E-04
     DISP CONVERGENCE VALUE   =   0.000      CRITERION=  0.5102E-13 <<< CONVERGED
    EQUIL ITER   1 COMPLETED.  NEW TRIANG MATRIX.  MAX DOF INC=   0.000    
     FORCE CONVERGENCE VALUE  =   0.000      CRITERION=  0.5206E-04 <<< CONVERGED
    >>> SOLUTION CONVERGED AFTER EQUILIBRIUM ITERATION   1
 *** LOAD STEP     2   SUBSTEP    44  COMPLETED.    CUM ITER =     55
 *** TIME =  0.100000         TIME INC =  0.250000E-08

     FORCE CONVERGENCE VALUE  =   0.000      CRITERION=  0.5102E-04
     DISP CONVERGENCE VALUE   =   0.000      CRITERION=  0.5102E-13 <<< CONVERGED
    EQUIL ITER   1 COMPLETED.  NEW TRIANG MATRIX.  MAX DOF INC=   0.000    
     FORCE CONVERGENCE VALUE  =   0.000      CRITERION=  0.5206E-04 <<< CONVERGED
    >>> SOLUTION CONVERGED AFTER EQUILIBRIUM ITERATION   1
 *** LOAD STEP     2   SUBSTEP    45  COMPLETED.    CUM ITER =     56
 *** TIME =  0.100000         TIME INC =  0.250000E-08

     FORCE CONVERGENCE VALUE  =   0.000      CRITERION=  0.5102E-04
     DISP CONVERGENCE VALUE   =   0.000      CRITERION=  0.5102E-13 <<< CONVERGED
    EQUIL ITER   1 COMPLETED.  NEW TRIANG MATRIX.  MAX DOF INC=   0.000    
     FORCE CONVERGENCE VALUE  =   0.000      CRITERION=  0.5206E-04 <<< CONVERGED
    >>> SOLUTION CONVERGED AFTER EQUILIBRIUM ITERATION   1
 *** LOAD STEP     2   SUBSTEP    46  COMPLETED.    CUM ITER =     57
 *** TIME =  0.100000         TIME INC =  0.250000E-08

     FORCE CONVERGENCE VALUE  =   0.000      CRITERION=  0.5102E-04
     DISP CONVERGENCE VALUE   =   0.000      CRITERION=  0.5102E-13 <<< CONVERGED
    EQUIL ITER   1 COMPLETED.  NEW TRIANG MATRIX.  MAX DOF INC=   0.000    
     FORCE CONVERGENCE VALUE  =   0.000      CRITERION=  0.5206E-04 <<< CONVERGED
    >>> SOLUTION CONVERGED AFTER EQUILIBRIUM ITERATION   1
 *** LOAD STEP     2   SUBSTEP    47  COMPLETED.    CUM ITER =     58
 *** TIME =  0.100000         TIME INC =  0.250000E-08

     FORCE CONVERGENCE VALUE  =   0.000      CRITERION=  0.5102E-04
     DISP CONVERGENCE VALUE   =   0.000      CRITERION=  0.5102E-13 <<< CONVERGED
    EQUIL ITER   1 COMPLETED.  NEW TRIANG MATRIX.  MAX DOF INC=   0.000    
     FORCE CONVERGENCE VALUE  =   0.000      CRITERION=  0.5206E-04 <<< CONVERGED
    >>> SOLUTION CONVERGED AFTER EQUILIBRIUM ITERATION   1
 *** LOAD STEP     2   SUBSTEP    48  COMPLETED.    CUM ITER =     59
 *** TIME =  0.100000         TIME INC =  0.250000E-08

     FORCE CONVERGENCE VALUE  =   0.000      CRITERION=  0.5102E-04
     DISP CONVERGENCE VALUE   =   0.000      CRITERION=  0.5102E-13 <<< CONVERGED
    EQUIL ITER   1 COMPLETED.  NEW TRIANG MATRIX.  MAX DOF INC=   0.000    
     FORCE CONVERGENCE VALUE  =   0.000      CRITERION=  0.5206E-04 <<< CONVERGED
    >>> SOLUTION CONVERGED AFTER EQUILIBRIUM ITERATION   1
 *** LOAD STEP     2   SUBSTEP    49  COMPLETED.    CUM ITER =     60
 *** TIME =  0.100000         TIME INC =  0.250000E-08

     FORCE CONVERGENCE VALUE  =   0.000      CRITERION=  0.5102E-04
     DISP CONVERGENCE VALUE   =   0.000      CRITERION=  0.5102E-13 <<< CONVERGED
    EQUIL ITER   1 COMPLETED.  NEW TRIANG MATRIX.  MAX DOF INC=   0.000    
     FORCE CONVERGENCE VALUE  =   0.000      CRITERION=  0.5206E-04 <<< CONVERGED
    >>> SOLUTION CONVERGED AFTER EQUILIBRIUM ITERATION   1
 *** LOAD STEP     2   SUBSTEP    50  COMPLETED.    CUM ITER =     61
 *** TIME =  0.100000         TIME INC =  0.250000E-08

     FORCE CONVERGENCE VALUE  =   0.000      CRITERION=  0.5102E-04
     DISP CONVERGENCE VALUE   =   0.000      CRITERION=  0.5102E-13 <<< CONVERGED
    EQUIL ITER   1 COMPLETED.  NEW TRIANG MATRIX.  MAX DOF INC=   0.000    
     FORCE CONVERGENCE VALUE  =   0.000      CRITERION=  0.5206E-04 <<< CONVERGED
    >>> SOLUTION CONVERGED AFTER EQUILIBRIUM ITERATION   1
 *** LOAD STEP     2   SUBSTEP    51  COMPLETED.    CUM ITER =     62
 *** TIME =  0.100000         TIME INC =  0.250000E-08

     FORCE CONVERGENCE VALUE  =   0.000      CRITERION=  0.5102E-04
     DISP CONVERGENCE VALUE   =   0.000      CRITERION=  0.5102E-13 <<< CONVERGED
    EQUIL ITER   1 COMPLETED.  NEW TRIANG MATRIX.  MAX DOF INC=   0.000    
     FORCE CONVERGENCE VALUE  =   0.000      CRITERION=  0.5206E-04 <<< CONVERGED
    >>> SOLUTION CONVERGED AFTER EQUILIBRIUM ITERATION   1
 *** LOAD STEP     2   SUBSTEP    52  COMPLETED.    CUM ITER =     63
 *** TIME =  0.100000         TIME INC =  0.250000E-08

     FORCE CONVERGENCE VALUE  =   0.000      CRITERION=  0.5102E-04
     DISP CONVERGENCE VALUE   =   0.000      CRITERION=  0.5102E-13 <<< CONVERGED
    EQUIL ITER   1 COMPLETED.  NEW TRIANG MATRIX.  MAX DOF INC=   0.000    
     FORCE CONVERGENCE VALUE  =   0.000      CRITERION=  0.5206E-04 <<< CONVERGED
    >>> SOLUTION CONVERGED AFTER EQUILIBRIUM ITERATION   1
 *** LOAD STEP     2   SUBSTEP    53  COMPLETED.    CUM ITER =     64
 *** TIME =  0.100000         TIME INC =  0.250000E-08

     FORCE CONVERGENCE VALUE  =   0.000      CRITERION=  0.5102E-04
     DISP CONVERGENCE VALUE   =   0.000      CRITERION=  0.5102E-13 <<< CONVERGED
    EQUIL ITER   1 COMPLETED.  NEW TRIANG MATRIX.  MAX DOF INC=   0.000    
     FORCE CONVERGENCE VALUE  =   0.000      CRITERION=  0.5206E-04 <<< CONVERGED
    >>> SOLUTION CONVERGED AFTER EQUILIBRIUM ITERATION   1
 *** LOAD STEP     2   SUBSTEP    54  COMPLETED.    CUM ITER =     65
 *** TIME =  0.100000         TIME INC =  0.250000E-08

     FORCE CONVERGENCE VALUE  =   0.000      CRITERION=  0.5102E-04
     DISP CONVERGENCE VALUE   =   0.000      CRITERION=  0.5102E-13 <<< CONVERGED
    EQUIL ITER   1 COMPLETED.  NEW TRIANG MATRIX.  MAX DOF INC=   0.000    
     FORCE CONVERGENCE VALUE  =   0.000      CRITERION=  0.5206E-04 <<< CONVERGED
    >>> SOLUTION CONVERGED AFTER EQUILIBRIUM ITERATION   1
 *** LOAD STEP     2   SUBSTEP    55  COMPLETED.    CUM ITER =     66
 *** TIME =  0.100000         TIME INC =  0.250000E-08

     FORCE CONVERGENCE VALUE  =   0.000      CRITERION=  0.5102E-04
     DISP CONVERGENCE VALUE   =   0.000      CRITERION=  0.5102E-13 <<< CONVERGED
    EQUIL ITER   1 COMPLETED.  NEW TRIANG MATRIX.  MAX DOF INC=   0.000    
     FORCE CONVERGENCE VALUE  =   0.000      CRITERION=  0.5206E-04 <<< CONVERGED
    >>> SOLUTION CONVERGED AFTER EQUILIBRIUM ITERATION   1
 *** LOAD STEP     2   SUBSTEP    56  COMPLETED.    CUM ITER =     67
 *** TIME =  0.100000         TIME INC =  0.250000E-08

     FORCE CONVERGENCE VALUE  =   0.000      CRITERION=  0.5102E-04
     DISP CONVERGENCE VALUE   =   0.000      CRITERION=  0.5102E-13 <<< CONVERGED
    EQUIL ITER   1 COMPLETED.  NEW TRIANG MATRIX.  MAX DOF INC=   0.000    
     FORCE CONVERGENCE VALUE  =   0.000      CRITERION=  0.5206E-04 <<< CONVERGED
    >>> SOLUTION CONVERGED AFTER EQUILIBRIUM ITERATION   1
 *** LOAD STEP     2   SUBSTEP    57  COMPLETED.    CUM ITER =     68
 *** TIME =  0.100000         TIME INC =  0.250000E-08

     FORCE CONVERGENCE VALUE  =   0.000      CRITERION=  0.5102E-04
     DISP CONVERGENCE VALUE   =   0.000      CRITERION=  0.5102E-13 <<< CONVERGED
    EQUIL ITER   1 COMPLETED.  NEW TRIANG MATRIX.  MAX DOF INC=   0.000    
     FORCE CONVERGENCE VALUE  =   0.000      CRITERION=  0.5206E-04 <<< CONVERGED
    >>> SOLUTION CONVERGED AFTER EQUILIBRIUM ITERATION   1
 *** LOAD STEP     2   SUBSTEP    58  COMPLETED.    CUM ITER =     69
 *** TIME =  0.100000         TIME INC =  0.250000E-08

     FORCE CONVERGENCE VALUE  =   0.000      CRITERION=  0.5102E-04
     DISP CONVERGENCE VALUE   =   0.000      CRITERION=  0.5102E-13 <<< CONVERGED
    EQUIL ITER   1 COMPLETED.  NEW TRIANG MATRIX.  MAX DOF INC=   0.000    
     FORCE CONVERGENCE VALUE  =   0.000      CRITERION=  0.5206E-04 <<< CONVERGED
    >>> SOLUTION CONVERGED AFTER EQUILIBRIUM ITERATION   1
 *** LOAD STEP     2   SUBSTEP    59  COMPLETED.    CUM ITER =     70
 *** TIME =  0.100000         TIME INC =  0.250000E-08

     FORCE CONVERGENCE VALUE  =   0.000      CRITERION=  0.5102E-04
     DISP CONVERGENCE VALUE   =   0.000      CRITERION=  0.5102E-13 <<< CONVERGED
    EQUIL ITER   1 COMPLETED.  NEW TRIANG MATRIX.  MAX DOF INC=   0.000    
     FORCE CONVERGENCE VALUE  =   0.000      CRITERION=  0.5206E-04 <<< CONVERGED
    >>> SOLUTION CONVERGED AFTER EQUILIBRIUM ITERATION   1
 *** LOAD STEP     2   SUBSTEP    60  COMPLETED.    CUM ITER =     71
 *** TIME =  0.100000         TIME INC =  0.250000E-08

     FORCE CONVERGENCE VALUE  =   0.000      CRITERION=  0.5102E-04
     DISP CONVERGENCE VALUE   =   0.000      CRITERION=  0.5102E-13 <<< CONVERGED
    EQUIL ITER   1 COMPLETED.  NEW TRIANG MATRIX.  MAX DOF INC=   0.000    
     FORCE CONVERGENCE VALUE  =   0.000      CRITERION=  0.5206E-04 <<< CONVERGED
    >>> SOLUTION CONVERGED AFTER EQUILIBRIUM ITERATION   1
 *** LOAD STEP     2   SUBSTEP    61  COMPLETED.    CUM ITER =     72
 *** TIME =  0.100000         TIME INC =  0.250000E-08

     FORCE CONVERGENCE VALUE  =   0.000      CRITERION=  0.5102E-04
     DISP CONVERGENCE VALUE   =   0.000      CRITERION=  0.5102E-13 <<< CONVERGED
    EQUIL ITER   1 COMPLETED.  NEW TRIANG MATRIX.  MAX DOF INC=   0.000    
     FORCE CONVERGENCE VALUE  =   0.000      CRITERION=  0.5206E-04 <<< CONVERGED
    >>> SOLUTION CONVERGED AFTER EQUILIBRIUM ITERATION   1
 *** LOAD STEP     2   SUBSTEP    62  COMPLETED.    CUM ITER =     73
 *** TIME =  0.100000         TIME INC =  0.250000E-08

     FORCE CONVERGENCE VALUE  =   0.000      CRITERION=  0.5102E-04
     DISP CONVERGENCE VALUE   =   0.000      CRITERION=  0.5102E-13 <<< CONVERGED
    EQUIL ITER   1 COMPLETED.  NEW TRIANG MATRIX.  MAX DOF INC=   0.000    
     FORCE CONVERGENCE VALUE  =   0.000      CRITERION=  0.5206E-04 <<< CONVERGED
    >>> SOLUTION CONVERGED AFTER EQUILIBRIUM ITERATION   1
 *** LOAD STEP     2   SUBSTEP    63  COMPLETED.    CUM ITER =     74
 *** TIME =  0.100000         TIME INC =  0.250000E-08

     FORCE CONVERGENCE VALUE  =   0.000      CRITERION=  0.5102E-04
     DISP CONVERGENCE VALUE   =   0.000      CRITERION=  0.5102E-13 <<< CONVERGED
    EQUIL ITER   1 COMPLETED.  NEW TRIANG MATRIX.  MAX DOF INC=   0.000    
     FORCE CONVERGENCE VALUE  =   0.000      CRITERION=  0.5206E-04 <<< CONVERGED
    >>> SOLUTION CONVERGED AFTER EQUILIBRIUM ITERATION   1
 *** LOAD STEP     2   SUBSTEP    64  COMPLETED.    CUM ITER =     75
 *** TIME =  0.100000         TIME INC =  0.250000E-08

     FORCE CONVERGENCE VALUE  =   0.000      CRITERION=  0.5102E-04
     DISP CONVERGENCE VALUE   =   0.000      CRITERION=  0.5102E-13 <<< CONVERGED
    EQUIL ITER   1 COMPLETED.  NEW TRIANG MATRIX.  MAX DOF INC=   0.000    
     FORCE CONVERGENCE VALUE  =   0.000      CRITERION=  0.5206E-04 <<< CONVERGED
    >>> SOLUTION CONVERGED AFTER EQUILIBRIUM ITERATION   1
 *** LOAD STEP     2   SUBSTEP    65  COMPLETED.    CUM ITER =     76
 *** TIME =  0.100000         TIME INC =  0.250000E-08

     FORCE CONVERGENCE VALUE  =   0.000      CRITERION=  0.5102E-04
     DISP CONVERGENCE VALUE   =   0.000      CRITERION=  0.5102E-13 <<< CONVERGED
    EQUIL ITER   1 COMPLETED.  NEW TRIANG MATRIX.  MAX DOF INC=   0.000    
     FORCE CONVERGENCE VALUE  =   0.000      CRITERION=  0.5206E-04 <<< CONVERGED
    >>> SOLUTION CONVERGED AFTER EQUILIBRIUM ITERATION   1
 *** LOAD STEP     2   SUBSTEP    66  COMPLETED.    CUM ITER =     77
 *** TIME =  0.100000         TIME INC =  0.250000E-08

     FORCE CONVERGENCE VALUE  =   0.000      CRITERION=  0.5102E-04
     DISP CONVERGENCE VALUE   =   0.000      CRITERION=  0.5102E-13 <<< CONVERGED
    EQUIL ITER   1 COMPLETED.  NEW TRIANG MATRIX.  MAX DOF INC=   0.000    
     FORCE CONVERGENCE VALUE  =   0.000      CRITERION=  0.5206E-04 <<< CONVERGED
    >>> SOLUTION CONVERGED AFTER EQUILIBRIUM ITERATION   1
 *** LOAD STEP     2   SUBSTEP    67  COMPLETED.    CUM ITER =     78
 *** TIME =  0.100000         TIME INC =  0.250000E-08

     FORCE CONVERGENCE VALUE  =   0.000      CRITERION=  0.5102E-04
     DISP CONVERGENCE VALUE   =   0.000      CRITERION=  0.5102E-13 <<< CONVERGED
    EQUIL ITER   1 COMPLETED.  NEW TRIANG MATRIX.  MAX DOF INC=   0.000    
     FORCE CONVERGENCE VALUE  =   0.000      CRITERION=  0.5206E-04 <<< CONVERGED
    >>> SOLUTION CONVERGED AFTER EQUILIBRIUM ITERATION   1
 *** LOAD STEP     2   SUBSTEP    68  COMPLETED.    CUM ITER =     79
 *** TIME =  0.100000         TIME INC =  0.250000E-08

     FORCE CONVERGENCE VALUE  =   0.000      CRITERION=  0.5102E-04
     DISP CONVERGENCE VALUE   =   0.000      CRITERION=  0.5102E-13 <<< CONVERGED
    EQUIL ITER   1 COMPLETED.  NEW TRIANG MATRIX.  MAX DOF INC=   0.000    
     FORCE CONVERGENCE VALUE  =   0.000      CRITERION=  0.5206E-04 <<< CONVERGED
    >>> SOLUTION CONVERGED AFTER EQUILIBRIUM ITERATION   1
 *** LOAD STEP     2   SUBSTEP    69  COMPLETED.    CUM ITER =     80
 *** TIME =  0.100000         TIME INC =  0.250000E-08

     FORCE CONVERGENCE VALUE  =   0.000      CRITERION=  0.5102E-04
     DISP CONVERGENCE VALUE   =   0.000      CRITERION=  0.5102E-13 <<< CONVERGED
    EQUIL ITER   1 COMPLETED.  NEW TRIANG MATRIX.  MAX DOF INC=   0.000    
     FORCE CONVERGENCE VALUE  =   0.000      CRITERION=  0.5206E-04 <<< CONVERGED
    >>> SOLUTION CONVERGED AFTER EQUILIBRIUM ITERATION   1
 *** LOAD STEP     2   SUBSTEP    70  COMPLETED.    CUM ITER =     81
 *** TIME =  0.100000         TIME INC =  0.250000E-08

     FORCE CONVERGENCE VALUE  =   0.000      CRITERION=  0.5102E-04
     DISP CONVERGENCE VALUE   =   0.000      CRITERION=  0.5102E-13 <<< CONVERGED
    EQUIL ITER   1 COMPLETED.  NEW TRIANG MATRIX.  MAX DOF INC=   0.000    
     FORCE CONVERGENCE VALUE  =   0.000      CRITERION=  0.5206E-04 <<< CONVERGED
    >>> SOLUTION CONVERGED AFTER EQUILIBRIUM ITERATION   1
 *** LOAD STEP     2   SUBSTEP    71  COMPLETED.    CUM ITER =     82
 *** TIME =  0.100000         TIME INC =  0.250000E-08

     FORCE CONVERGENCE VALUE  =   0.000      CRITERION=  0.5102E-04
     DISP CONVERGENCE VALUE   =   0.000      CRITERION=  0.5102E-13 <<< CONVERGED
    EQUIL ITER   1 COMPLETED.  NEW TRIANG MATRIX.  MAX DOF INC=   0.000    
     FORCE CONVERGENCE VALUE  =   0.000      CRITERION=  0.5206E-04 <<< CONVERGED
    >>> SOLUTION CONVERGED AFTER EQUILIBRIUM ITERATION   1
 *** LOAD STEP     2   SUBSTEP    72  COMPLETED.    CUM ITER =     83
 *** TIME =  0.100000         TIME INC =  0.250000E-08

     FORCE CONVERGENCE VALUE  =   0.000      CRITERION=  0.5102E-04
     DISP CONVERGENCE VALUE   =   0.000      CRITERION=  0.5102E-13 <<< CONVERGED
    EQUIL ITER   1 COMPLETED.  NEW TRIANG MATRIX.  MAX DOF INC=   0.000    
     FORCE CONVERGENCE VALUE  =   0.000      CRITERION=  0.5206E-04 <<< CONVERGED
    >>> SOLUTION CONVERGED AFTER EQUILIBRIUM ITERATION   1
 *** LOAD STEP     2   SUBSTEP    73  COMPLETED.    CUM ITER =     84
 *** TIME =  0.100000         TIME INC =  0.250000E-08

     FORCE CONVERGENCE VALUE  =   0.000      CRITERION=  0.5102E-04
     DISP CONVERGENCE VALUE   =   0.000      CRITERION=  0.5102E-13 <<< CONVERGED
    EQUIL ITER   1 COMPLETED.  NEW TRIANG MATRIX.  MAX DOF INC=   0.000    
     FORCE CONVERGENCE VALUE  =   0.000      CRITERION=  0.5206E-04 <<< CONVERGED
    >>> SOLUTION CONVERGED AFTER EQUILIBRIUM ITERATION   1
 *** LOAD STEP     2   SUBSTEP    74  COMPLETED.    CUM ITER =     85
 *** TIME =  0.100000         TIME INC =  0.250000E-08

     FORCE CONVERGENCE VALUE  =   0.000      CRITERION=  0.5102E-04
     DISP CONVERGENCE VALUE   =   0.000      CRITERION=  0.5102E-13 <<< CONVERGED
    EQUIL ITER   1 COMPLETED.  NEW TRIANG MATRIX.  MAX DOF INC=   0.000    
     FORCE CONVERGENCE VALUE  =   0.000      CRITERION=  0.5206E-04 <<< CONVERGED
    >>> SOLUTION CONVERGED AFTER EQUILIBRIUM ITERATION   1
 *** LOAD STEP     2   SUBSTEP    75  COMPLETED.    CUM ITER =     86
 *** TIME =  0.100000         TIME INC =  0.250000E-08

     FORCE CONVERGENCE VALUE  =   0.000      CRITERION=  0.5102E-04
     DISP CONVERGENCE VALUE   =   0.000      CRITERION=  0.5102E-13 <<< CONVERGED
    EQUIL ITER   1 COMPLETED.  NEW TRIANG MATRIX.  MAX DOF INC=   0.000    
     FORCE CONVERGENCE VALUE  =   0.000      CRITERION=  0.5206E-04 <<< CONVERGED
    >>> SOLUTION CONVERGED AFTER EQUILIBRIUM ITERATION   1
 *** LOAD STEP     2   SUBSTEP    76  COMPLETED.    CUM ITER =     87
 *** TIME =  0.100000         TIME INC =  0.250000E-08

     FORCE CONVERGENCE VALUE  =   0.000      CRITERION=  0.5102E-04
     DISP CONVERGENCE VALUE   =   0.000      CRITERION=  0.5102E-13 <<< CONVERGED
    EQUIL ITER   1 COMPLETED.  NEW TRIANG MATRIX.  MAX DOF INC=   0.000    
     FORCE CONVERGENCE VALUE  =   0.000      CRITERION=  0.5206E-04 <<< CONVERGED
    >>> SOLUTION CONVERGED AFTER EQUILIBRIUM ITERATION   1
 *** LOAD STEP     2   SUBSTEP    77  COMPLETED.    CUM ITER =     88
 *** TIME =  0.100000         TIME INC =  0.250000E-08

     FORCE CONVERGENCE VALUE  =   0.000      CRITERION=  0.5102E-04
     DISP CONVERGENCE VALUE   =   0.000      CRITERION=  0.5102E-13 <<< CONVERGED
    EQUIL ITER   1 COMPLETED.  NEW TRIANG MATRIX.  MAX DOF INC=   0.000    
     FORCE CONVERGENCE VALUE  =   0.000      CRITERION=  0.5206E-04 <<< CONVERGED
    >>> SOLUTION CONVERGED AFTER EQUILIBRIUM ITERATION   1
 *** LOAD STEP     2   SUBSTEP    78  COMPLETED.    CUM ITER =     89
 *** TIME =  0.100000         TIME INC =  0.250000E-08

     FORCE CONVERGENCE VALUE  =   0.000      CRITERION=  0.5102E-04
     DISP CONVERGENCE VALUE   =   0.000      CRITERION=  0.5102E-13 <<< CONVERGED
    EQUIL ITER   1 COMPLETED.  NEW TRIANG MATRIX.  MAX DOF INC=   0.000    
     FORCE CONVERGENCE VALUE  =   0.000      CRITERION=  0.5206E-04 <<< CONVERGED
    >>> SOLUTION CONVERGED AFTER EQUILIBRIUM ITERATION   1
 *** LOAD STEP     2   SUBSTEP    79  COMPLETED.    CUM ITER =     90
 *** TIME =  0.100000         TIME INC =  0.250000E-08

     FORCE CONVERGENCE VALUE  =   0.000      CRITERION=  0.5102E-04
     DISP CONVERGENCE VALUE   =   0.000      CRITERION=  0.5102E-13 <<< CONVERGED
    EQUIL ITER   1 COMPLETED.  NEW TRIANG MATRIX.  MAX DOF INC=   0.000    
     FORCE CONVERGENCE VALUE  =   0.000      CRITERION=  0.5206E-04 <<< CONVERGED
    >>> SOLUTION CONVERGED AFTER EQUILIBRIUM ITERATION   1
 *** LOAD STEP     2   SUBSTEP    80  COMPLETED.    CUM ITER =     91
 *** TIME =  0.100000         TIME INC =  0.250000E-08

     FORCE CONVERGENCE VALUE  =   0.000      CRITERION=  0.5102E-04
     DISP CONVERGENCE VALUE   =   0.000      CRITERION=  0.5102E-13 <<< CONVERGED
    EQUIL ITER   1 COMPLETED.  NEW TRIANG MATRIX.  MAX DOF INC=   0.000    
     FORCE CONVERGENCE VALUE  =   0.000      CRITERION=  0.5206E-04 <<< CONVERGED
    >>> SOLUTION CONVERGED AFTER EQUILIBRIUM ITERATION   1
 *** LOAD STEP     2   SUBSTEP    81  COMPLETED.    CUM ITER =     92
 *** TIME =  0.100000         TIME INC =  0.250000E-08

     FORCE CONVERGENCE VALUE  =   0.000      CRITERION=  0.5102E-04
     DISP CONVERGENCE VALUE   =   0.000      CRITERION=  0.5102E-13 <<< CONVERGED
    EQUIL ITER   1 COMPLETED.  NEW TRIANG MATRIX.  MAX DOF INC=   0.000    
     FORCE CONVERGENCE VALUE  =   0.000      CRITERION=  0.5206E-04 <<< CONVERGED
    >>> SOLUTION CONVERGED AFTER EQUILIBRIUM ITERATION   1
 *** LOAD STEP     2   SUBSTEP    82  COMPLETED.    CUM ITER =     93
 *** TIME =  0.100000         TIME INC =  0.250000E-08

     FORCE CONVERGENCE VALUE  =   0.000      CRITERION=  0.5102E-04
     DISP CONVERGENCE VALUE   =   0.000      CRITERION=  0.5102E-13 <<< CONVERGED
    EQUIL ITER   1 COMPLETED.  NEW TRIANG MATRIX.  MAX DOF INC=   0.000    
     FORCE CONVERGENCE VALUE  =   0.000      CRITERION=  0.5206E-04 <<< CONVERGED
    >>> SOLUTION CONVERGED AFTER EQUILIBRIUM ITERATION   1
 *** LOAD STEP     2   SUBSTEP    83  COMPLETED.    CUM ITER =     94
 *** TIME =  0.100000         TIME INC =  0.250000E-08

     FORCE CONVERGENCE VALUE  =   0.000      CRITERION=  0.5102E-04
     DISP CONVERGENCE VALUE   =   0.000      CRITERION=  0.5102E-13 <<< CONVERGED
    EQUIL ITER   1 COMPLETED.  NEW TRIANG MATRIX.  MAX DOF INC=   0.000    
     FORCE CONVERGENCE VALUE  =   0.000      CRITERION=  0.5206E-04 <<< CONVERGED
    >>> SOLUTION CONVERGED AFTER EQUILIBRIUM ITERATION   1
 *** LOAD STEP     2   SUBSTEP    84  COMPLETED.    CUM ITER =     95
 *** TIME =  0.100000         TIME INC =  0.250000E-08

     FORCE CONVERGENCE VALUE  =   0.000      CRITERION=  0.5102E-04
     DISP CONVERGENCE VALUE   =   0.000      CRITERION=  0.5102E-13 <<< CONVERGED
    EQUIL ITER   1 COMPLETED.  NEW TRIANG MATRIX.  MAX DOF INC=   0.000    
     FORCE CONVERGENCE VALUE  =   0.000      CRITERION=  0.5206E-04 <<< CONVERGED
    >>> SOLUTION CONVERGED AFTER EQUILIBRIUM ITERATION   1
 *** LOAD STEP     2   SUBSTEP    85  COMPLETED.    CUM ITER =     96
 *** TIME =  0.100000         TIME INC =  0.250000E-08

     FORCE CONVERGENCE VALUE  =   0.000      CRITERION=  0.5102E-04
     DISP CONVERGENCE VALUE   =   0.000      CRITERION=  0.5102E-13 <<< CONVERGED
    EQUIL ITER   1 COMPLETED.  NEW TRIANG MATRIX.  MAX DOF INC=   0.000    
     FORCE CONVERGENCE VALUE  =   0.000      CRITERION=  0.5206E-04 <<< CONVERGED
    >>> SOLUTION CONVERGED AFTER EQUILIBRIUM ITERATION   1
 *** LOAD STEP     2   SUBSTEP    86  COMPLETED.    CUM ITER =     97
 *** TIME =  0.100000         TIME INC =  0.250000E-08

     FORCE CONVERGENCE VALUE  =   0.000      CRITERION=  0.5102E-04
     DISP CONVERGENCE VALUE   =   0.000      CRITERION=  0.5102E-13 <<< CONVERGED
    EQUIL ITER   1 COMPLETED.  NEW TRIANG MATRIX.  MAX DOF INC=   0.000    
     FORCE CONVERGENCE VALUE  =   0.000      CRITERION=  0.5206E-04 <<< CONVERGED
    >>> SOLUTION CONVERGED AFTER EQUILIBRIUM ITERATION   1
 *** LOAD STEP     2   SUBSTEP    87  COMPLETED.    CUM ITER =     98
 *** TIME =  0.100000         TIME INC =  0.250000E-08

     FORCE CONVERGENCE VALUE  =   0.000      CRITERION=  0.5102E-04
     DISP CONVERGENCE VALUE   =   0.000      CRITERION=  0.5102E-13 <<< CONVERGED
    EQUIL ITER   1 COMPLETED.  NEW TRIANG MATRIX.  MAX DOF INC=   0.000    
     FORCE CONVERGENCE VALUE  =   0.000      CRITERION=  0.5206E-04 <<< CONVERGED
    >>> SOLUTION CONVERGED AFTER EQUILIBRIUM ITERATION   1
 *** LOAD STEP     2   SUBSTEP    88  COMPLETED.    CUM ITER =     99
 *** TIME =  0.100000         TIME INC =  0.250000E-08

     FORCE CONVERGENCE VALUE  =   0.000      CRITERION=  0.5102E-04
     DISP CONVERGENCE VALUE   =   0.000      CRITERION=  0.5102E-13 <<< CONVERGED
    EQUIL ITER   1 COMPLETED.  NEW TRIANG MATRIX.  MAX DOF INC=   0.000    
     FORCE CONVERGENCE VALUE  =   0.000      CRITERION=  0.5206E-04 <<< CONVERGED
    >>> SOLUTION CONVERGED AFTER EQUILIBRIUM ITERATION   1
 *** LOAD STEP     2   SUBSTEP    89  COMPLETED.    CUM ITER =    100
 *** TIME =  0.100000         TIME INC =  0.250000E-08

     FORCE CONVERGENCE VALUE  =   0.000      CRITERION=  0.5102E-04
     DISP CONVERGENCE VALUE   =   0.000      CRITERION=  0.5102E-13 <<< CONVERGED
    EQUIL ITER   1 COMPLETED.  NEW TRIANG MATRIX.  MAX DOF INC=   0.000    
     FORCE CONVERGENCE VALUE  =   0.000      CRITERION=  0.5206E-04 <<< CONVERGED
    >>> SOLUTION CONVERGED AFTER EQUILIBRIUM ITERATION   1
 *** LOAD STEP     2   SUBSTEP    90  COMPLETED.    CUM ITER =    101
 *** TIME =  0.100000         TIME INC =  0.250000E-08

     FORCE CONVERGENCE VALUE  =   0.000      CRITERION=  0.5102E-04
     DISP CONVERGENCE VALUE   =   0.000      CRITERION=  0.5102E-13 <<< CONVERGED
    EQUIL ITER   1 COMPLETED.  NEW TRIANG MATRIX.  MAX DOF INC=   0.000    
     FORCE CONVERGENCE VALUE  =   0.000      CRITERION=  0.5206E-04 <<< CONVERGED
    >>> SOLUTION CONVERGED AFTER EQUILIBRIUM ITERATION   1
 *** LOAD STEP     2   SUBSTEP    91  COMPLETED.    CUM ITER =    102
 *** TIME =  0.100000         TIME INC =  0.250000E-08

     FORCE CONVERGENCE VALUE  =   0.000      CRITERION=  0.5102E-04
     DISP CONVERGENCE VALUE   =   0.000      CRITERION=  0.5102E-13 <<< CONVERGED
    EQUIL ITER   1 COMPLETED.  NEW TRIANG MATRIX.  MAX DOF INC=   0.000    
     FORCE CONVERGENCE VALUE  =   0.000      CRITERION=  0.5206E-04 <<< CONVERGED
    >>> SOLUTION CONVERGED AFTER EQUILIBRIUM ITERATION   1
 *** LOAD STEP     2   SUBSTEP    92  COMPLETED.    CUM ITER =    103
 *** TIME =  0.100000         TIME INC =  0.250000E-08

     FORCE CONVERGENCE VALUE  =   0.000      CRITERION=  0.5102E-04
     DISP CONVERGENCE VALUE   =   0.000      CRITERION=  0.5102E-13 <<< CONVERGED
    EQUIL ITER   1 COMPLETED.  NEW TRIANG MATRIX.  MAX DOF INC=   0.000    
     FORCE CONVERGENCE VALUE  =   0.000      CRITERION=  0.5206E-04 <<< CONVERGED
    >>> SOLUTION CONVERGED AFTER EQUILIBRIUM ITERATION   1
 *** LOAD STEP     2   SUBSTEP    93  COMPLETED.    CUM ITER =    104
 *** TIME =  0.100000         TIME INC =  0.250000E-08

     FORCE CONVERGENCE VALUE  =   0.000      CRITERION=  0.5102E-04
     DISP CONVERGENCE VALUE   =   0.000      CRITERION=  0.5102E-13 <<< CONVERGED
    EQUIL ITER   1 COMPLETED.  NEW TRIANG MATRIX.  MAX DOF INC=   0.000    
     FORCE CONVERGENCE VALUE  =   0.000      CRITERION=  0.5206E-04 <<< CONVERGED
    >>> SOLUTION CONVERGED AFTER EQUILIBRIUM ITERATION   1
 *** LOAD STEP     2   SUBSTEP    94  COMPLETED.    CUM ITER =    105
 *** TIME =  0.100000         TIME INC =  0.250000E-08

     FORCE CONVERGENCE VALUE  =   0.000      CRITERION=  0.5102E-04
     DISP CONVERGENCE VALUE   =   0.000      CRITERION=  0.5102E-13 <<< CONVERGED
    EQUIL ITER   1 COMPLETED.  NEW TRIANG MATRIX.  MAX DOF INC=   0.000    
     FORCE CONVERGENCE VALUE  =   0.000      CRITERION=  0.5206E-04 <<< CONVERGED
    >>> SOLUTION CONVERGED AFTER EQUILIBRIUM ITERATION   1
 *** LOAD STEP     2   SUBSTEP    95  COMPLETED.    CUM ITER =    106
 *** TIME =  0.100000         TIME INC =  0.250000E-08

     FORCE CONVERGENCE VALUE  =   0.000      CRITERION=  0.5102E-04
     DISP CONVERGENCE VALUE   =   0.000      CRITERION=  0.5102E-13 <<< CONVERGED
    EQUIL ITER   1 COMPLETED.  NEW TRIANG MATRIX.  MAX DOF INC=   0.000    
     FORCE CONVERGENCE VALUE  =   0.000      CRITERION=  0.5206E-04 <<< CONVERGED
    >>> SOLUTION CONVERGED AFTER EQUILIBRIUM ITERATION   1
 *** LOAD STEP     2   SUBSTEP    96  COMPLETED.    CUM ITER =    107
 *** TIME =  0.100000         TIME INC =  0.250000E-08

     FORCE CONVERGENCE VALUE  =   0.000      CRITERION=  0.5102E-04
     DISP CONVERGENCE VALUE   =   0.000      CRITERION=  0.5102E-13 <<< CONVERGED
    EQUIL ITER   1 COMPLETED.  NEW TRIANG MATRIX.  MAX DOF INC=   0.000    
     FORCE CONVERGENCE VALUE  =   0.000      CRITERION=  0.5206E-04 <<< CONVERGED
    >>> SOLUTION CONVERGED AFTER EQUILIBRIUM ITERATION   1
 *** LOAD STEP     2   SUBSTEP    97  COMPLETED.    CUM ITER =    108
 *** TIME =  0.100000         TIME INC =  0.250000E-08

     FORCE CONVERGENCE VALUE  =   0.000      CRITERION=  0.5102E-04
     DISP CONVERGENCE VALUE   =   0.000      CRITERION=  0.5102E-13 <<< CONVERGED
    EQUIL ITER   1 COMPLETED.  NEW TRIANG MATRIX.  MAX DOF INC=   0.000    
     FORCE CONVERGENCE VALUE  =   0.000      CRITERION=  0.5206E-04 <<< CONVERGED
    >>> SOLUTION CONVERGED AFTER EQUILIBRIUM ITERATION   1
 *** LOAD STEP     2   SUBSTEP    98  COMPLETED.    CUM ITER =    109
 *** TIME =  0.100000         TIME INC =  0.250000E-08

     FORCE CONVERGENCE VALUE  =   0.000      CRITERION=  0.5102E-04
     DISP CONVERGENCE VALUE   =   0.000      CRITERION=  0.5102E-13 <<< CONVERGED
    EQUIL ITER   1 COMPLETED.  NEW TRIANG MATRIX.  MAX DOF INC=   0.000    
     FORCE CONVERGENCE VALUE  =   0.000      CRITERION=  0.5206E-04 <<< CONVERGED
    >>> SOLUTION CONVERGED AFTER EQUILIBRIUM ITERATION   1
 *** LOAD STEP     2   SUBSTEP    99  COMPLETED.    CUM ITER =    110
 *** TIME =  0.100000         TIME INC =  0.250000E-08

     FORCE CONVERGENCE VALUE  =   0.000      CRITERION=  0.5102E-04
     DISP CONVERGENCE VALUE   =   0.000      CRITERION=  0.5102E-13 <<< CONVERGED
    EQUIL ITER   1 COMPLETED.  NEW TRIANG MATRIX.  MAX DOF INC=   0.000    
[...]

     FORCE CONVERGENCE VALUE  =  0.1973E-04  CRITERION=  0.2670E-02
     DISP CONVERGENCE VALUE   =  0.8215E-08  CRITERION=  0.5102E-03 <<< CONVERGED
    EQUIL ITER   1 COMPLETED.  NEW TRIANG MATRIX.  MAX DOF INC=  0.8215E-08
     FORCE CONVERGENCE VALUE  =  0.1535E-06  CRITERION=  0.2725E-02 <<< CONVERGED
    >>> SOLUTION CONVERGED AFTER EQUILIBRIUM ITERATION   1
 *** LOAD STEP     3   SUBSTEP   774  COMPLETED.    CUM ITER =   1650
 *** TIME =  0.114513         TIME INC =  0.187475E-04

     FORCE CONVERGENCE VALUE  =  0.2122E-04  CRITERION=  0.2670E-02
     DISP CONVERGENCE VALUE   =  0.8833E-08  CRITERION=  0.5102E-03 <<< CONVERGED
    EQUIL ITER   1 COMPLETED.  NEW TRIANG MATRIX.  MAX DOF INC= -0.8833E-08
     FORCE CONVERGENCE VALUE  =  0.1651E-06  CRITERION=  0.2725E-02 <<< CONVERGED
    >>> SOLUTION CONVERGED AFTER EQUILIBRIUM ITERATION   1
 *** LOAD STEP     3   SUBSTEP   775  COMPLETED.    CUM ITER =   1651
 *** TIME =  0.114531         TIME INC =  0.187475E-04

     FORCE CONVERGENCE VALUE  =  0.5566E-04  CRITERION=  0.2670E-02
     DISP CONVERGENCE VALUE   =  0.2317E-07  CRITERION=  0.5102E-03 <<< CONVERGED
    EQUIL ITER   1 COMPLETED.  NEW TRIANG MATRIX.  MAX DOF INC= -0.2317E-07
     FORCE CONVERGENCE VALUE  =  0.4330E-06  CRITERION=  0.2725E-02 <<< CONVERGED
    >>> SOLUTION CONVERGED AFTER EQUILIBRIUM ITERATION   1
 *** LOAD STEP     3   SUBSTEP   776  COMPLETED.    CUM ITER =   1652
 *** TIME =  0.114550         TIME INC =  0.187475E-04

     FORCE CONVERGENCE VALUE  =  0.7490E-04  CRITERION=  0.2670E-02
     DISP CONVERGENCE VALUE   =  0.3118E-07  CRITERION=  0.5102E-03 <<< CONVERGED
    EQUIL ITER   1 COMPLETED.  NEW TRIANG MATRIX.  MAX DOF INC= -0.3118E-07
     FORCE CONVERGENCE VALUE  =  0.5827E-06  CRITERION=  0.2724E-02 <<< CONVERGED
    >>> SOLUTION CONVERGED AFTER EQUILIBRIUM ITERATION   1
 *** LOAD STEP     3   SUBSTEP   777  COMPLETED.    CUM ITER =   1653
 *** TIME =  0.114569         TIME INC =  0.187475E-04

     FORCE CONVERGENCE VALUE  =  0.7438E-04  CRITERION=  0.2670E-02
     DISP CONVERGENCE VALUE   =  0.3097E-07  CRITERION=  0.5102E-03 <<< CONVERGED
    EQUIL ITER   1 COMPLETED.  NEW TRIANG MATRIX.  MAX DOF INC= -0.3097E-07
     FORCE CONVERGENCE VALUE  =  0.5787E-06  CRITERION=  0.2724E-02 <<< CONVERGED
    >>> SOLUTION CONVERGED AFTER EQUILIBRIUM ITERATION   1
 *** LOAD STEP     3   SUBSTEP   778  COMPLETED.    CUM ITER =   1654
 *** TIME =  0.114588         TIME INC =  0.187475E-04

     FORCE CONVERGENCE VALUE  =  0.5475E-04  CRITERION=  0.2670E-02
     DISP CONVERGENCE VALUE   =  0.2279E-07  CRITERION=  0.5102E-03 <<< CONVERGED
    EQUIL ITER   1 COMPLETED.  NEW TRIANG MATRIX.  MAX DOF INC= -0.2279E-07
     FORCE CONVERGENCE VALUE  =  0.4259E-06  CRITERION=  0.2724E-02 <<< CONVERGED
    >>> SOLUTION CONVERGED AFTER EQUILIBRIUM ITERATION   1
 *** LOAD STEP     3   SUBSTEP   779  COMPLETED.    CUM ITER =   1655
 *** TIME =  0.114606         TIME INC =  0.187475E-04

     FORCE CONVERGENCE VALUE  =  0.2154E-04  CRITERION=  0.2670E-02
     DISP CONVERGENCE VALUE   =  0.8967E-08  CRITERION=  0.5102E-03 <<< CONVERGED
    EQUIL ITER   1 COMPLETED.  NEW TRIANG MATRIX.  MAX DOF INC= -0.8967E-08
     FORCE CONVERGENCE VALUE  =  0.1676E-06  CRITERION=  0.2724E-02 <<< CONVERGED
    >>> SOLUTION CONVERGED AFTER EQUILIBRIUM ITERATION   1
 *** LOAD STEP     3   SUBSTEP   780  COMPLETED.    CUM ITER =   1656
 *** TIME =  0.114625         TIME INC =  0.187475E-04

     FORCE CONVERGENCE VALUE  =  0.1635E-04  CRITERION=  0.2670E-02
     DISP CONVERGENCE VALUE   =  0.6809E-08  CRITERION=  0.5102E-03 <<< CONVERGED
    EQUIL ITER   1 COMPLETED.  NEW TRIANG MATRIX.  MAX DOF INC=  0.6809E-08
     FORCE CONVERGENCE VALUE  =  0.1272E-06  CRITERION=  0.2724E-02 <<< CONVERGED
    >>> SOLUTION CONVERGED AFTER EQUILIBRIUM ITERATION   1
 *** LOAD STEP     3   SUBSTEP   781  COMPLETED.    CUM ITER =   1657
 *** TIME =  0.114644         TIME INC =  0.187475E-04

     FORCE CONVERGENCE VALUE  =  0.4907E-04  CRITERION=  0.2670E-02
     DISP CONVERGENCE VALUE   =  0.2043E-07  CRITERION=  0.5102E-03 <<< CONVERGED
    EQUIL ITER   1 COMPLETED.  NEW TRIANG MATRIX.  MAX DOF INC=  0.2043E-07
     FORCE CONVERGENCE VALUE  =  0.3817E-06  CRITERION=  0.2724E-02 <<< CONVERGED
    >>> SOLUTION CONVERGED AFTER EQUILIBRIUM ITERATION   1
 *** LOAD STEP     3   SUBSTEP   782  COMPLETED.    CUM ITER =   1658
 *** TIME =  0.114663         TIME INC =  0.187475E-04

     FORCE CONVERGENCE VALUE  =  0.6832E-04  CRITERION=  0.2670E-02
     DISP CONVERGENCE VALUE   =  0.2844E-07  CRITERION=  0.5102E-03 <<< CONVERGED
    EQUIL ITER   1 COMPLETED.  NEW TRIANG MATRIX.  MAX DOF INC=  0.2844E-07
     FORCE CONVERGENCE VALUE  =  0.5315E-06  CRITERION=  0.2724E-02 <<< CONVERGED
    >>> SOLUTION CONVERGED AFTER EQUILIBRIUM ITERATION   1
 *** LOAD STEP     3   SUBSTEP   783  COMPLETED.    CUM ITER =   1659
 *** TIME =  0.114681         TIME INC =  0.187475E-04

     FORCE CONVERGENCE VALUE  =  0.6950E-04  CRITERION=  0.2670E-02
     DISP CONVERGENCE VALUE   =  0.2894E-07  CRITERION=  0.5102E-03 <<< CONVERGED
    EQUIL ITER   1 COMPLETED.  NEW TRIANG MATRIX.  MAX DOF INC=  0.2894E-07
     FORCE CONVERGENCE VALUE  =  0.5407E-06  CRITERION=  0.2724E-02 <<< CONVERGED
    >>> SOLUTION CONVERGED AFTER EQUILIBRIUM ITERATION   1
 *** LOAD STEP     3   SUBSTEP   784  COMPLETED.    CUM ITER =   1660
 *** TIME =  0.114700         TIME INC =  0.187475E-04

     FORCE CONVERGENCE VALUE  =  0.5278E-04  CRITERION=  0.2670E-02
     DISP CONVERGENCE VALUE   =  0.2198E-07  CRITERION=  0.5102E-03 <<< CONVERGED
    EQUIL ITER   1 COMPLETED.  NEW TRIANG MATRIX.  MAX DOF INC=  0.2198E-07
     FORCE CONVERGENCE VALUE  =  0.4107E-06  CRITERION=  0.2725E-02 <<< CONVERGED
    >>> SOLUTION CONVERGED AFTER EQUILIBRIUM ITERATION   1
 *** LOAD STEP     3   SUBSTEP   785  COMPLETED.    CUM ITER =   1661
 *** TIME =  0.114719         TIME INC =  0.187475E-04

     FORCE CONVERGENCE VALUE  =  0.2292E-04  CRITERION=  0.2670E-02
     DISP CONVERGENCE VALUE   =  0.9542E-08  CRITERION=  0.5102E-03 <<< CONVERGED
    EQUIL ITER   1 COMPLETED.  NEW TRIANG MATRIX.  MAX DOF INC=  0.9542E-08
     FORCE CONVERGENCE VALUE  =  0.1783E-06  CRITERION=  0.2725E-02 <<< CONVERGED
    >>> SOLUTION CONVERGED AFTER EQUILIBRIUM ITERATION   1
 *** LOAD STEP     3   SUBSTEP   786  COMPLETED.    CUM ITER =   1662
 *** TIME =  0.114738         TIME INC =  0.187475E-04

     FORCE CONVERGENCE VALUE  =  0.1207E-04  CRITERION=  0.2670E-02
     DISP CONVERGENCE VALUE   =  0.5026E-08  CRITERION=  0.5102E-03 <<< CONVERGED
    EQUIL ITER   1 COMPLETED.  NEW TRIANG MATRIX.  MAX DOF INC= -0.5026E-08
     FORCE CONVERGENCE VALUE  =  0.9392E-07  CRITERION=  0.2725E-02 <<< CONVERGED
    >>> SOLUTION CONVERGED AFTER EQUILIBRIUM ITERATION   1
 *** LOAD STEP     3   SUBSTEP   787  COMPLETED.    CUM ITER =   1663
 *** TIME =  0.114756         TIME INC =  0.187475E-04

     FORCE CONVERGENCE VALUE  =  0.4306E-04  CRITERION=  0.2670E-02
     DISP CONVERGENCE VALUE   =  0.1793E-07  CRITERION=  0.5102E-03 <<< CONVERGED
    EQUIL ITER   1 COMPLETED.  NEW TRIANG MATRIX.  MAX DOF INC= -0.1793E-07
     FORCE CONVERGENCE VALUE  =  0.3350E-06  CRITERION=  0.2725E-02 <<< CONVERGED
    >>> SOLUTION CONVERGED AFTER EQUILIBRIUM ITERATION   1
 *** LOAD STEP     3   SUBSTEP   788  COMPLETED.    CUM ITER =   1664
 *** TIME =  0.114775         TIME INC =  0.187475E-04

     FORCE CONVERGENCE VALUE  =  0.6218E-04  CRITERION=  0.2670E-02
     DISP CONVERGENCE VALUE   =  0.2588E-07  CRITERION=  0.5102E-03 <<< CONVERGED
    EQUIL ITER   1 COMPLETED.  NEW TRIANG MATRIX.  MAX DOF INC= -0.2588E-07
     FORCE CONVERGENCE VALUE  =  0.4837E-06  CRITERION=  0.2724E-02 <<< CONVERGED
    >>> SOLUTION CONVERGED AFTER EQUILIBRIUM ITERATION   1
 *** LOAD STEP     3   SUBSTEP   789  COMPLETED.    CUM ITER =   1665
 *** TIME =  0.114794         TIME INC =  0.187475E-04

     FORCE CONVERGENCE VALUE  =  0.6481E-04  CRITERION=  0.2670E-02
     DISP CONVERGENCE VALUE   =  0.2698E-07  CRITERION=  0.5102E-03 <<< CONVERGED
    EQUIL ITER   1 COMPLETED.  NEW TRIANG MATRIX.  MAX DOF INC= -0.2698E-07
     FORCE CONVERGENCE VALUE  =  0.5042E-06  CRITERION=  0.2724E-02 <<< CONVERGED
    >>> SOLUTION CONVERGED AFTER EQUILIBRIUM ITERATION   1
 *** LOAD STEP     3   SUBSTEP   790  COMPLETED.    CUM ITER =   1666
 *** TIME =  0.114813         TIME INC =  0.187475E-04

     FORCE CONVERGENCE VALUE  =  0.5071E-04  CRITERION=  0.2670E-02
     DISP CONVERGENCE VALUE   =  0.2111E-07  CRITERION=  0.5102E-03 <<< CONVERGED
    EQUIL ITER   1 COMPLETED.  NEW TRIANG MATRIX.  MAX DOF INC= -0.2111E-07
     FORCE CONVERGENCE VALUE  =  0.3945E-06  CRITERION=  0.2724E-02 <<< CONVERGED
    >>> SOLUTION CONVERGED AFTER EQUILIBRIUM ITERATION   1
 *** LOAD STEP     3   SUBSTEP   791  COMPLETED.    CUM ITER =   1667
 *** TIME =  0.114831         TIME INC =  0.187475E-04

     FORCE CONVERGENCE VALUE  =  0.2393E-04  CRITERION=  0.2670E-02
     DISP CONVERGENCE VALUE   =  0.9961E-08  CRITERION=  0.5102E-03 <<< CONVERGED
    EQUIL ITER   1 COMPLETED.  NEW TRIANG MATRIX.  MAX DOF INC= -0.9961E-08
     FORCE CONVERGENCE VALUE  =  0.1861E-06  CRITERION=  0.2724E-02 <<< CONVERGED
    >>> SOLUTION CONVERGED AFTER EQUILIBRIUM ITERATION   1
 *** LOAD STEP     3   SUBSTEP   792  COMPLETED.    CUM ITER =   1668
 *** TIME =  0.114850         TIME INC =  0.187475E-04

     FORCE CONVERGENCE VALUE  =  0.8318E-05  CRITERION=  0.2670E-02
     DISP CONVERGENCE VALUE   =  0.3463E-08  CRITERION=  0.5102E-03 <<< CONVERGED
    EQUIL ITER   1 COMPLETED.  NEW TRIANG MATRIX.  MAX DOF INC=  0.3463E-08
     FORCE CONVERGENCE VALUE  =  0.6472E-07  CRITERION=  0.2724E-02 <<< CONVERGED
    >>> SOLUTION CONVERGED AFTER EQUILIBRIUM ITERATION   1
 *** LOAD STEP     3   SUBSTEP   793  COMPLETED.    CUM ITER =   1669
 *** TIME =  0.114869         TIME INC =  0.187475E-04

     FORCE CONVERGENCE VALUE  =  0.3760E-04  CRITERION=  0.2670E-02
     DISP CONVERGENCE VALUE   =  0.1565E-07  CRITERION=  0.5102E-03 <<< CONVERGED
    EQUIL ITER   1 COMPLETED.  NEW TRIANG MATRIX.  MAX DOF INC=  0.1565E-07
     FORCE CONVERGENCE VALUE  =  0.2925E-06  CRITERION=  0.2724E-02 <<< CONVERGED
    >>> SOLUTION CONVERGED AFTER EQUILIBRIUM ITERATION   1
 *** LOAD STEP     3   SUBSTEP   794  COMPLETED.    CUM ITER =   1670
 *** TIME =  0.114888         TIME INC =  0.187475E-04

     FORCE CONVERGENCE VALUE  =  0.5645E-04  CRITERION=  0.2670E-02
     DISP CONVERGENCE VALUE   =  0.2350E-07  CRITERION=  0.5102E-03 <<< CONVERGED
    EQUIL ITER   1 COMPLETED.  NEW TRIANG MATRIX.  MAX DOF INC=  0.2350E-07
     FORCE CONVERGENCE VALUE  =  0.4392E-06  CRITERION=  0.2724E-02 <<< CONVERGED
    >>> SOLUTION CONVERGED AFTER EQUILIBRIUM ITERATION   1
 *** LOAD STEP     3   SUBSTEP   795  COMPLETED.    CUM ITER =   1671
 *** TIME =  0.114906         TIME INC =  0.187475E-04

     FORCE CONVERGENCE VALUE  =  0.6030E-04  CRITERION=  0.2670E-02
     DISP CONVERGENCE VALUE   =  0.2510E-07  CRITERION=  0.5102E-03 <<< CONVERGED
    EQUIL ITER   1 COMPLETED.  NEW TRIANG MATRIX.  MAX DOF INC=  0.2510E-07
     FORCE CONVERGENCE VALUE  =  0.4691E-06  CRITERION=  0.2724E-02 <<< CONVERGED
    >>> SOLUTION CONVERGED AFTER EQUILIBRIUM ITERATION   1
 *** LOAD STEP     3   SUBSTEP   796  COMPLETED.    CUM ITER =   1672
 *** TIME =  0.114925         TIME INC =  0.187475E-04

     FORCE CONVERGENCE VALUE  =  0.4855E-04  CRITERION=  0.2670E-02
     DISP CONVERGENCE VALUE   =  0.2021E-07  CRITERION=  0.5102E-03 <<< CONVERGED
    EQUIL ITER   1 COMPLETED.  NEW TRIANG MATRIX.  MAX DOF INC=  0.2021E-07
     FORCE CONVERGENCE VALUE  =  0.3777E-06  CRITERION=  0.2725E-02 <<< CONVERGED
    >>> SOLUTION CONVERGED AFTER EQUILIBRIUM ITERATION   1
 *** LOAD STEP     3   SUBSTEP   797  COMPLETED.    CUM ITER =   1673
 *** TIME =  0.114944         TIME INC =  0.187475E-04

     FORCE CONVERGENCE VALUE  =  0.2461E-04  CRITERION=  0.2670E-02
     DISP CONVERGENCE VALUE   =  0.1024E-07  CRITERION=  0.5102E-03 <<< CONVERGED
    EQUIL ITER   1 COMPLETED.  NEW TRIANG MATRIX.  MAX DOF INC=  0.1024E-07
     FORCE CONVERGENCE VALUE  =  0.1914E-06  CRITERION=  0.2725E-02 <<< CONVERGED
    >>> SOLUTION CONVERGED AFTER EQUILIBRIUM ITERATION   1
 *** LOAD STEP     3   SUBSTEP   798  COMPLETED.    CUM ITER =   1674
 *** TIME =  0.114963         TIME INC =  0.187475E-04

     FORCE CONVERGENCE VALUE  =  0.5045E-05  CRITERION=  0.2670E-02
     DISP CONVERGENCE VALUE   =  0.2100E-08  CRITERION=  0.5102E-03 <<< CONVERGED
    EQUIL ITER   1 COMPLETED.  NEW TRIANG MATRIX.  MAX DOF INC= -0.2100E-08
     FORCE CONVERGENCE VALUE  =  0.3925E-07  CRITERION=  0.2725E-02 <<< CONVERGED
    >>> SOLUTION CONVERGED AFTER EQUILIBRIUM ITERATION   1
 *** LOAD STEP     3   SUBSTEP   799  COMPLETED.    CUM ITER =   1675
 *** TIME =  0.114981         TIME INC =  0.187475E-04

     FORCE CONVERGENCE VALUE  =  0.3264E-04  CRITERION=  0.2670E-02
     DISP CONVERGENCE VALUE   =  0.1359E-07  CRITERION=  0.5102E-03 <<< CONVERGED
    EQUIL ITER   1 COMPLETED.  NEW TRIANG MATRIX.  MAX DOF INC= -0.1359E-07
     FORCE CONVERGENCE VALUE  =  0.2539E-06  CRITERION=  0.2725E-02 <<< CONVERGED
    >>> SOLUTION CONVERGED AFTER EQUILIBRIUM ITERATION   1
 *** LOAD STEP     3   SUBSTEP   800  COMPLETED.    CUM ITER =   1676
 *** TIME =  0.115000         TIME INC =  0.187475E-04
 ****************************************************
 *************** FINISHED SOLVE FOR LS 3 *************

 *GET  _WALLASOL  FROM  ACTI  ITEM=TIME WALL  VALUE=  22.6663889    

 PRINTOUT RESUMED BY /GOP

 *GET  _PCGITER  FROM  ACTI  ITEM=SOLU CGIT  VALUE=  216.000000    

 FINISH SOLUTION PROCESSING


 ***** ROUTINE COMPLETED *****  CP =     10288.109



 *** ANSYS - ENGINEERING ANALYSIS SYSTEM  RELEASE 2021 R1          21.1     ***
 ANSYS Mechanical Enterprise                       
 00000000  VERSION=WINDOWS x64   22:39:59  MAR 22, 2026 CP=  10288.109

 _________________--__ (D5)                                                    



          ***** ANSYS RESULTS INTERPRETATION (POST1) *****

 *** NOTE ***                            CP =   10288.109   TIME= 22:39:59
 Reading results into the database (SET command) will update the current 
 displacement and force boundary conditions in the database with the     
 values from the results file for that load set.  Note that any          
 subsequent solutions will use these values unless action is taken to    
 either SAVE the current values or not overwrite them (/EXIT,NOSAVE).    

 Set Encoding of XML File to:ISO-8859-1

 Set Output of XML File to:
     PARM,     ,     ,     ,     ,     ,     ,     ,     ,     ,     ,     ,
         ,     ,     ,     ,     ,     ,     ,

 DATABASE WRITTEN ON FILE  parm.xml                                                                                                                                                                                                                                                            

 EXIT THE ANSYS POST1 DATABASE PROCESSOR


 ***** ROUTINE COMPLETED *****  CP =     10288.125



 PRINTOUT RESUMED BY /GOP

 *GET  _WALLDONE  FROM  ACTI  ITEM=TIME WALL  VALUE=  22.6663889    

 PARAMETER _PREPTIME =     0.000000000    

 PARAMETER _SOLVTIME =     3479.000000    

 PARAMETER _POSTTIME =     0.000000000    

 PARAMETER _TOTALTIM =     3479.000000    

 *GET  _DLBRATIO  FROM  ACTI  ITEM=SOLU DLBR  VALUE=  0.00000000    

 *GET  _COMBTIME  FROM  ACTI  ITEM=SOLU COMB  VALUE=  0.00000000    
 --- Total number of nodes = 8070
 --- Total number of elements = 4514
 --- Element load balance ratio = 0
 --- Time to combine distributed files = 0

 EXIT ANSYS WITHOUT SAVING DATABASE


 NUMBER OF WARNING MESSAGES ENCOUNTERED=          6
 NUMBER OF ERROR   MESSAGES ENCOUNTERED=          0

 *** WARNING ***                         CP =   10288.844   TIME= 22:40:00
 During this session the elapsed time exceeds the CPU time by 42%.       
 Often this indicates either a lack of physical memory (RAM) required    
 to efficiently handle this simulation or it indicates a particularly    
 slow hard drive configuration.  This simulation can be expected to run  
 faster on identical hardware if additional RAM or a faster hard drive   
 configuration is made available.  For more details, please see the      
 ANSYS Performance Guide which is part of the ANSYS Help system.         

+--------------------- A N S Y S   S T A T I S T I C S ------------------------+

Release: 2021 R1            Build: 21.1       Update: UP20201109   Platform: WINDOWS x64 
Date Run: 03/22/2026   Time: 22:40     Process ID: 27760
Operating System: Windows 10  (Build: 26200)

Processor Model: 12th Gen Intel(R) Core(TM) i5-12500H

Compiler: Intel(R) FORTRAN Compiler Version 19.0.0  (Build: 20190206)
          Intel(R) C/C++ Compiler Version 19.0.0  (Build: 20190206)
          Intel(R) Math Kernel Library Version 2020.0.0 Product Build 20191125

Number of machines requested            :    1
Total number of cores available         :   16
Number of physical cores available      :   12
Number of processes requested           :    1
Number of threads per process requested :    4
Total number of cores requested         :    4 (Shared Memory Parallel)                    

GPU Acceleration: Not Requested

Job Name: file
Input File: dummy.dat
Working Directory: E:\救珛扢數\workbench\4℅4諍醱\_ProjectScratch\Scr2561

Total CPU time for main thread                    :     2449.5 seconds
Total CPU time summed for all threads             :    10288.3 seconds

Elapsed time spent obtaining a license            :        1.2 seconds
Elapsed time spent pre-processing model (/PREP7)  :        0.0 seconds
Elapsed time spent solution - preprocessing       :        0.1 seconds
Elapsed time spent computing solution             :     3477.7 seconds
Elapsed time spent solution - postprocessing      :        0.0 seconds
Elapsed time spent post-processing model (/POST1) :        0.0 seconds
 
Equation solver used                              :            PCG (symmetric)
Equation solver computational rate                :        2.8 Gflops

Maximum total memory used                         :       77.0 MB
Maximum total memory allocated                    :     2112.0 MB
Total physical memory available                   :         16 GB

Total amount of I/O written to disk               :       80.5 GB
Total amount of I/O read from disk                :      100.2 GB

+------------------ E N D   A N S Y S   S T A T I S T I C S -------------------+


 *---------------------------------------------------------------------------*
 |                                                                           |
 |                            ANSYS RUN COMPLETED                            |
 |                                                                           |
 |---------------------------------------------------------------------------|
 |                                                                           |
 | Ansys 2021 R1               Build 21.1         UP20201109     WINDOWS x64 |
 |                                                                           |
 |---------------------------------------------------------------------------|
 |                                                                           |
 | Database Requested(-db)  1024 MB    Scratch Memory Requested      1024 MB |
 | Maximum Database Used       7 MB    Maximum Scratch Memory Used     70 MB |
 |                                                                           |
 |---------------------------------------------------------------------------|
 |                                                                           |
 |        CP Time      (sec) =      10288.281       Time  =  22:40:00        |
 |        Elapsed Time (sec) =       3482.000       Date  =  03/22/2026      |
 |                                                                           |
 *---------------------------------------------------------------------------*
